data_structure

_audit_creation_method RASPA-1.0
_audit_creation_date 2023-5-22
_audit_author_name 'Poobodin Mano'

_cell_length_a    44.4423
_cell_length_b    44.4422
_cell_length_c    44.2516
_cell_angle_alpha 89.9999
_cell_angle_beta  89.9998
_cell_angle_gamma 90
_cell_volume      87401.9

_symmetry_cell_setting          triclinic
_symmetry_space_group_name_Hall 'P 1'
_symmetry_space_group_name_H-M  'P 1'
_symmetry_Int_Tables_number     1

_symmetry_equiv_pos_as_xyz 'x,y,z'

loop_
_atom_site_label
_atom_site_type_symbol
_atom_site_fract_x
_atom_site_fract_y
_atom_site_fract_z
_atom_site_charge
C1       C      0.495340000000     0.055060000000     0.247370000000     0.348043   
C2       C      0.495140000000     0.435420000000     0.247370000000     0.348607   
C3       C      0.495240000000     0.995240000000     0.307320000000     0.35071    
C4       C      0.495240000000     0.495240000000     0.187410000000     0.349931   
C5       C      0.495140000000     0.185420000000     0.247360000000     0.348671   
C6       C      0.495340000000     0.305060000000     0.247360000000     0.348602   
C7       C      0.495240000000     0.245240000000     0.187400000000     0.349896   
C8       C      0.495240000000     0.245240000000     0.307320000000     0.34976    
C9       C      0.244750000000     0.055050000000     0.247390000000     0.347838   
C10      C      0.245730000000     0.435430000000     0.247390000000     0.348549   
C11      C      0.245240000000     0.995240000000     0.307340000000     0.3505     
C12      C      0.245240000000     0.495240000000     0.187440000000     0.349821   
C13      C      0.244640000000     0.185420000000     0.247380000000     0.348578   
C14      C      0.245830000000     0.305060000000     0.247380000000     0.348589   
C15      C      0.245240000000     0.245240000000     0.187410000000     0.34963    
C16      C      0.245240000000     0.245240000000     0.307330000000     0.34963    
C17      C      0.435420000000     0.994640000000     0.497370000000     0.344626   
C18      C      0.055050000000     0.995840000000     0.997370000000     0.343455   
C19      C      0.495240000000     0.995240000000     0.437410000000     0.345382   
C20      C      0.995240000000     0.995240000000     0.057320000000     0.345658   
C21      C      0.435420000000     0.245140000000     0.497360000000     0.348578   
C22      C      0.055050000000     0.245340000000     0.497360000000     0.348075   
C23      C      0.495240000000     0.245240000000     0.437400000000     0.349805   
C24      C      0.495240000000     0.245240000000     0.057320000000     0.349149   
C25      C      0.185430000000     0.995730000000     0.497370000000     0.344464   
C26      C      0.305050000000     0.994750000000     0.497370000000     0.3443     
C27      C      0.245240000000     0.995240000000     0.437430000000     0.345192   
C28      C      0.245240000000     0.995240000000     0.057330000000     0.34496    
C29      C      0.185420000000     0.245140000000     0.497370000000     0.348983   
C30      C      0.305050000000     0.245340000000     0.497370000000     0.349035   
C31      C      0.245240000000     0.245240000000     0.437410000000     0.349902   
C32      C      0.245240000000     0.245240000000     0.057330000000     0.349252   
C33      C      0.386000000000     0.272430000000     0.497360000000    -0.00533502 
C34      C      0.402070000000     0.245150000000     0.497360000000    -0.0817902  
C35      C      0.385920000000     0.217960000000     0.997360000000    -0.00555561 
C36      C      0.354470000000     0.218050000000     0.997370000000    -0.00560095 
C37      C      0.338410000000     0.245330000000     0.497370000000    -0.0818652  
C38      C      0.354560000000     0.272520000000     0.497360000000    -0.00520696 
C39      C      0.104470000000     0.218050000000     0.497360000000    -0.00544856 
C40      C      0.088410000000     0.245330000000     0.497360000000    -0.0808853  
C41      C      0.104560000000     0.272520000000     0.497360000000    -0.00545253 
C42      C      0.136010000000     0.272430000000     0.497370000000    -0.00499652 
C43      C      0.152070000000     0.245150000000     0.497370000000    -0.0819732  
C44      C      0.135920000000     0.217960000000     0.497360000000    -0.00486942 
C45      C      0.385950000000     0.467280000000     0.497790000000    -0.00504259 
C46      C      0.402070000000     0.994500000000     0.497360000000    -0.0854519  
C47      C      0.385970000000     0.021740000000     0.996930000000    -0.00188467 
C48      C      0.354540000000     0.021780000000     0.996920000000    -0.00190321 
C49      C      0.338410000000     0.994590000000     0.497370000000    -0.0851543  
C50      C      0.354480000000     0.467320000000     0.497810000000    -0.00534183 
C51      C      0.104530000000     0.023200000000     0.497790000000    -0.00143233 
C52      C      0.088410000000     0.995980000000     0.497360000000    -0.0843289  
C53      C      0.104510000000     0.468740000000     0.996930000000    -0.00582315 
C54      C      0.135930000000     0.468700000000     0.996920000000    -0.00542371 
C55      C      0.152070000000     0.995890000000     0.497370000000    -0.085212   
C56      C      0.136000000000     0.023160000000     0.497810000000    -0.00111595 
C57      C      0.225830000000     0.264400000000     0.138170000000    -0.00294974 
C58      C      0.245240000000     0.245240000000     0.154170000000    -0.0819833  
C59      C      0.264650000000     0.226080000000     0.138170000000    -0.00297773 
C60      C      0.264250000000     0.225690000000     0.106580000000    -0.00333459 
C61      C      0.245240000000     0.245240000000     0.090580000000    -0.080997   
C62      C      0.226220000000     0.264790000000     0.106580000000    -0.00338678 
C63      C      0.264270000000     0.225700000000     0.388170000000    -0.00331461 
C64      C      0.245240000000     0.245240000000     0.404170000000    -0.0821831  
C65      C      0.226210000000     0.264780000000     0.388170000000    -0.0032927  
C66      C      0.225820000000     0.264390000000     0.356580000000    -0.00341332 
C67      C      0.245240000000     0.245240000000     0.340580000000    -0.0819693  
C68      C      0.264660000000     0.226090000000     0.356580000000    -0.00340606 
C69      C      0.225780000000     0.476140000000     0.138180000000    -0.00295478 
C70      C      0.245240000000     0.495240000000     0.154180000000    -0.0820078  
C71      C      0.264700000000     0.014340000000     0.138180000000     0.00189829 
C72      C      0.264320000000     0.014730000000     0.106590000000    -9.01911e-05
C73      C      0.245240000000     0.495240000000     0.090580000000    -0.0810281  
C74      C      0.226160000000     0.475760000000     0.106590000000    -0.00344045 
C75      C      0.225760000000     0.014330000000     0.356590000000     0.00141856 
C76      C      0.245240000000     0.995240000000     0.340590000000    -0.0871656  
C77      C      0.264720000000     0.476150000000     0.356590000000    -0.00348593 
C78      C      0.264330000000     0.475770000000     0.388180000000    -0.00342324 
C79      C      0.245240000000     0.995240000000     0.404180000000    -0.0851865  
C80      C      0.226150000000     0.014710000000     0.388180000000     2.2311e-05 
C81      C      0.218740000000     0.354510000000     0.247820000000    -0.00538036 
C82      C      0.245980000000     0.338410000000     0.247390000000    -0.0817514  
C83      C      0.273200000000     0.354530000000     0.246960000000    -0.00509817 
C84      C      0.273160000000     0.386000000000     0.246950000000    -0.00516995 
C85      C      0.245890000000     0.402080000000     0.247390000000    -0.0817435  
C86      C      0.218700000000     0.385930000000     0.247840000000    -0.00532341 
C87      C      0.217320000000     0.104480000000     0.246950000000    -0.0052645  
C88      C      0.244590000000     0.088410000000     0.247390000000    -0.0808012  
C89      C      0.271780000000     0.104550000000     0.247840000000    -0.00551382 
C90      C      0.271740000000     0.135970000000     0.247820000000    -0.00511471 
C91      C      0.244500000000     0.152070000000     0.247390000000    -0.0817479  
C92      C      0.217270000000     0.135950000000     0.246960000000    -0.00485775 
C93      C      0.014720000000     0.226150000000     0.138150000000     0.000422955
C94      C      0.495240000000     0.245240000000     0.154150000000    -0.0820581  
C95      C      0.475760000000     0.264330000000     0.138150000000    -0.0030132  
C96      C      0.476150000000     0.264720000000     0.106560000000    -0.00343548 
C97      C      0.495240000000     0.245240000000     0.090560000000    -0.0811219  
C98      C      0.014330000000     0.225760000000     0.106560000000     0.00145584 
C99      C      0.014720000000     0.226150000000     0.356560000000     9.62203e-05
C100     C      0.495240000000     0.245240000000     0.340560000000    -0.0821829  
C101     C      0.475760000000     0.264330000000     0.356560000000    -0.00331398 
C102     C      0.476150000000     0.264720000000     0.388150000000    -0.00342804 
C103     C      0.495240000000     0.245240000000     0.404150000000    -0.0820507  
C104     C      0.014330000000     0.225760000000     0.388150000000     0.00149692 
C105     C      0.014790000000     0.476220000000     0.138160000000     0.000476211
C106     C      0.995240000000     0.495240000000     0.154160000000    -0.0851787  
C107     C      0.475690000000     0.014260000000     0.138160000000     0.00192478 
C108     C      0.476080000000     0.014650000000     0.106570000000    -3.0758e-05 
C109     C      0.995240000000     0.495240000000     0.090570000000    -0.0860179  
C110     C      0.014400000000     0.475830000000     0.106570000000     0.00141301 
C111     C      0.014770000000     0.476210000000     0.356570000000     9.07949e-05
C112     C      0.495240000000     0.995240000000     0.340570000000    -0.0872382  
C113     C      0.475700000000     0.014270000000     0.356570000000     0.00153325 
C114     C      0.476090000000     0.014660000000     0.388160000000    -5.02615e-06
C115     C      0.495240000000     0.995240000000     0.404160000000    -0.0851388  
C116     C      0.014390000000     0.475820000000     0.388160000000     0.00145033 
C117     C      0.467960000000     0.385920000000     0.247370000000    -0.00521071 
C118     C      0.495150000000     0.402070000000     0.247370000000    -0.0817702  
C119     C      0.022430000000     0.386010000000     0.247360000000    -0.00149284 
C120     C      0.022520000000     0.354560000000     0.247360000000    -0.00145082 
C121     C      0.495330000000     0.338410000000     0.247360000000    -0.0817758  
C122     C      0.468050000000     0.354470000000     0.247360000000    -0.00523447 
C123     C      0.022520000000     0.104560000000     0.247370000000    -0.00141958 
C124     C      0.495320000000     0.088410000000     0.247370000000    -0.0809396  
C125     C      0.468050000000     0.104470000000     0.247360000000    -0.00541796 
C126     C      0.467960000000     0.135920000000     0.247360000000    -0.00496597 
C127     C      0.495150000000     0.152070000000     0.247360000000    -0.0818146  
C128     C      0.022430000000     0.136010000000     0.247360000000    -0.001227   
C129     C      0.495340000000     0.055060000000     0.747370000000     0.348044   
C130     C      0.495140000000     0.435430000000     0.747370000000     0.348975   
C131     C      0.495240000000     0.995240000000     0.807320000000     0.350725   
C132     C      0.495240000000     0.495240000000     0.687410000000     0.349848   
C133     C      0.495140000000     0.185420000000     0.747360000000     0.348667   
C134     C      0.495340000000     0.305060000000     0.747360000000     0.348852   
C135     C      0.495240000000     0.245240000000     0.687400000000     0.34982    
C136     C      0.495240000000     0.245240000000     0.807320000000     0.349777   
C137     C      0.244750000000     0.055050000000     0.747390000000     0.347856   
C138     C      0.245730000000     0.435430000000     0.747390000000     0.348441   
C139     C      0.245240000000     0.995240000000     0.807340000000     0.350263   
C140     C      0.245240000000     0.495240000000     0.687440000000     0.349723   
C141     C      0.244640000000     0.185420000000     0.747380000000     0.348517   
C142     C      0.245840000000     0.305060000000     0.747380000000     0.348773   
C143     C      0.245240000000     0.245240000000     0.687420000000     0.349817   
C144     C      0.245240000000     0.245240000000     0.807330000000     0.349635   
C145     C      0.435420000000     0.994650000000     0.997370000000     0.344189   
C146     C      0.055050000000     0.995840000000     0.497370000000     0.343908   
C147     C      0.495240000000     0.995240000000     0.937410000000     0.345174   
C148     C      0.995240000000     0.995240000000     0.557320000000     0.346238   
C149     C      0.435420000000     0.245140000000     0.997360000000     0.34822    
C150     C      0.055050000000     0.245340000000     0.997360000000     0.347626   
C151     C      0.495240000000     0.245240000000     0.937400000000     0.349583   
C152     C      0.495240000000     0.245240000000     0.557320000000     0.349755   
C153     C      0.185430000000     0.995730000000     0.997370000000     0.344063   
C154     C      0.305050000000     0.994750000000     0.997370000000     0.343927   
C155     C      0.245240000000     0.995240000000     0.937430000000     0.344985   
C156     C      0.245240000000     0.995240000000     0.557330000000     0.345528   
C157     C      0.185420000000     0.245140000000     0.997370000000     0.348549   
C158     C      0.305060000000     0.245340000000     0.997370000000     0.348136   
C159     C      0.245240000000     0.245240000000     0.937410000000     0.34968    
C160     C      0.245240000000     0.245240000000     0.557330000000     0.349829   
C161     C      0.386010000000     0.272430000000     0.997360000000    -0.00554469 
C162     C      0.402070000000     0.245150000000     0.997360000000    -0.0821492  
C163     C      0.385920000000     0.217960000000     0.497360000000    -0.00531731 
C164     C      0.354470000000     0.218050000000     0.497370000000    -0.00528903 
C165     C      0.338410000000     0.245330000000     0.997370000000    -0.0821243  
C166     C      0.354560000000     0.272520000000     0.997360000000    -0.00553548 
C167     C      0.104470000000     0.218050000000     0.997360000000    -0.0057351  
C168     C      0.088410000000     0.245330000000     0.997360000000    -0.0811807  
C169     C      0.104560000000     0.272520000000     0.997360000000    -0.00577686 
C170     C      0.136010000000     0.272430000000     0.997370000000    -0.00524625 
C171     C      0.152070000000     0.245150000000     0.997370000000    -0.0823037  
C172     C      0.135920000000     0.217960000000     0.997360000000    -0.00513054 
C173     C      0.385950000000     0.467280000000     0.997790000000    -0.0054101  
C174     C      0.402070000000     0.994500000000     0.997360000000    -0.0857409  
C175     C      0.385970000000     0.021740000000     0.496930000000    -0.00157085 
C176     C      0.354550000000     0.021780000000     0.496920000000    -0.00167031 
C177     C      0.338400000000     0.994590000000     0.997370000000    -0.0855701  
C178     C      0.354480000000     0.467320000000     0.997810000000    -0.00549278 
C179     C      0.104530000000     0.023200000000     0.997790000000    -0.00171849 
C180     C      0.088410000000     0.995980000000     0.997360000000    -0.0846275  
C181     C      0.104510000000     0.468740000000     0.496930000000    -0.00561597 
C182     C      0.135930000000     0.468700000000     0.496920000000    -0.00511108 
C183     C      0.152070000000     0.995890000000     0.997370000000    -0.0855333  
C184     C      0.136000000000     0.023160000000     0.997810000000    -0.00138831 
C185     C      0.225830000000     0.264400000000     0.638170000000    -0.00331169 
C186     C      0.245240000000     0.245240000000     0.654170000000    -0.0819817  
C187     C      0.264640000000     0.226080000000     0.638170000000    -0.00326807 
C188     C      0.264260000000     0.225690000000     0.606580000000    -0.00334756 
C189     C      0.245240000000     0.245240000000     0.590580000000    -0.0819934  
C190     C      0.226220000000     0.264790000000     0.606580000000    -0.00332673 
C191     C      0.264270000000     0.225700000000     0.888170000000    -0.00335051 
C192     C      0.245240000000     0.245240000000     0.904170000000    -0.0820626  
C193     C      0.226210000000     0.264780000000     0.888170000000    -0.00336457 
C194     C      0.225820000000     0.264390000000     0.856580000000    -0.00333392 
C195     C      0.245240000000     0.245240000000     0.840580000000    -0.0819726  
C196     C      0.264660000000     0.226090000000     0.856580000000    -0.00336328 
C197     C      0.225780000000     0.476140000000     0.638180000000    -0.00336865 
C198     C      0.245240000000     0.495240000000     0.654180000000    -0.0819779  
C199     C      0.264700000000     0.014340000000     0.638180000000     0.00152396 
C200     C      0.264320000000     0.014730000000     0.606590000000    -9.60253e-06
C201     C      0.245240000000     0.495240000000     0.590580000000    -0.0821123  
C202     C      0.226160000000     0.475760000000     0.606590000000    -0.00333232 
C203     C      0.225760000000     0.014330000000     0.856590000000     0.00142202 
C204     C      0.245240000000     0.995240000000     0.840590000000    -0.0870663  
C205     C      0.264720000000     0.476150000000     0.856590000000    -0.00351005 
C206     C      0.264330000000     0.475770000000     0.888180000000    -0.00337934 
C207     C      0.245240000000     0.995240000000     0.904180000000    -0.0850957  
C208     C      0.226150000000     0.014710000000     0.888180000000     9.18415e-06
C209     C      0.218740000000     0.354510000000     0.747820000000    -0.00532892 
C210     C      0.245980000000     0.338410000000     0.747390000000    -0.0819113  
C211     C      0.273200000000     0.354530000000     0.746960000000    -0.00505129 
C212     C      0.273160000000     0.386000000000     0.746950000000    -0.00528408 
C213     C      0.245890000000     0.402070000000     0.747390000000    -0.0816372  
C214     C      0.218700000000     0.385930000000     0.747840000000    -0.00543842 
C215     C      0.217320000000     0.104480000000     0.746950000000    -0.00525662 
C216     C      0.244580000000     0.088410000000     0.747390000000    -0.0808513  
C217     C      0.271780000000     0.104550000000     0.747840000000    -0.00556541 
C218     C      0.271740000000     0.135970000000     0.747820000000    -0.005144   
C219     C      0.244500000000     0.152070000000     0.747390000000    -0.0817624  
C220     C      0.217270000000     0.135950000000     0.746960000000    -0.00491745 
C221     C      0.014720000000     0.226150000000     0.638150000000     3.62835e-05
C222     C      0.495240000000     0.245240000000     0.654150000000    -0.0820481  
C223     C      0.475760000000     0.264330000000     0.638150000000    -0.00341109 
C224     C      0.476150000000     0.264720000000     0.606560000000    -0.00334064 
C225     C      0.495240000000     0.245240000000     0.590560000000    -0.0821752  
C226     C      0.014330000000     0.225760000000     0.606560000000     0.00157291 
C227     C      0.014720000000     0.226150000000     0.856560000000     0.000143046
C228     C      0.495240000000     0.245240000000     0.840560000000    -0.0821661  
C229     C      0.475760000000     0.264330000000     0.856560000000    -0.00330971 
C230     C      0.476150000000     0.264720000000     0.888150000000    -0.00344006 
C231     C      0.495240000000     0.245240000000     0.904150000000    -0.0819538  
C232     C      0.014330000000     0.225760000000     0.888150000000     0.0014683  
C233     C      0.014790000000     0.476220000000     0.638160000000     7.34669e-05
C234     C      0.995240000000     0.495240000000     0.654160000000    -0.0851712  
C235     C      0.475690000000     0.014260000000     0.638160000000     0.00152187 
C236     C      0.476080000000     0.014650000000     0.606570000000     8.52748e-05
C237     C      0.995240000000     0.495240000000     0.590570000000    -0.0871007  
C238     C      0.014400000000     0.475830000000     0.606570000000     0.00155441 
C239     C      0.014770000000     0.476210000000     0.856570000000     0.00016175 
C240     C      0.495240000000     0.995240000000     0.840570000000    -0.0871993  
C241     C      0.475700000000     0.014270000000     0.856570000000     0.00154991 
C242     C      0.476090000000     0.014660000000     0.888160000000    -2.03443e-05
C243     C      0.495240000000     0.995240000000     0.904160000000    -0.0850541  
C244     C      0.014390000000     0.475820000000     0.888160000000     0.001413   
C245     C      0.467960000000     0.385920000000     0.747370000000    -0.00525555 
C246     C      0.495150000000     0.402070000000     0.747360000000    -0.0818157  
C247     C      0.022430000000     0.386010000000     0.747360000000    -0.00155254 
C248     C      0.022520000000     0.354560000000     0.747360000000    -0.00145417 
C249     C      0.495330000000     0.338410000000     0.747360000000    -0.0819217  
C250     C      0.468050000000     0.354480000000     0.747360000000    -0.00521763 
C251     C      0.022520000000     0.104560000000     0.747360000000    -0.0015026  
C252     C      0.495330000000     0.088410000000     0.747360000000    -0.0809805  
C253     C      0.468050000000     0.104470000000     0.747360000000    -0.00547788 
C254     C      0.467960000000     0.135920000000     0.747360000000    -0.00498683 
C255     C      0.495150000000     0.152070000000     0.747360000000    -0.0818521  
C256     C      0.022430000000     0.136010000000     0.747360000000    -0.0012126  
C257     C      0.495340000000     0.555060000000     0.247370000000     0.348695   
C258     C      0.495140000000     0.935420000000     0.247370000000     0.348465   
C259     C      0.495240000000     0.495240000000     0.307320000000     0.34989    
C260     C      0.495240000000     0.995240000000     0.187410000000     0.350744   
C261     C      0.495140000000     0.685430000000     0.247360000000     0.348732   
C262     C      0.495340000000     0.805050000000     0.247360000000     0.348808   
C263     C      0.495240000000     0.745240000000     0.187400000000     0.349893   
C264     C      0.495240000000     0.745240000000     0.307320000000     0.349756   
C265     C      0.244750000000     0.555050000000     0.247390000000     0.348483   
C266     C      0.245730000000     0.935430000000     0.247390000000     0.34825    
C267     C      0.245240000000     0.495240000000     0.307340000000     0.349681   
C268     C      0.245240000000     0.995240000000     0.187440000000     0.350625   
C269     C      0.244640000000     0.685430000000     0.247380000000     0.348649   
C270     C      0.245830000000     0.805050000000     0.247380000000     0.348662   
C271     C      0.245240000000     0.745240000000     0.187410000000     0.349635   
C272     C      0.245240000000     0.745240000000     0.307330000000     0.349634   
C273     C      0.435420000000     0.494640000000     0.497370000000     0.348811   
C274     C      0.055050000000     0.495840000000     0.997370000000     0.347797   
C275     C      0.495240000000     0.495240000000     0.437410000000     0.34966    
C276     C      0.995240000000     0.495240000000     0.057320000000     0.349911   
C277     C      0.435420000000     0.745140000000     0.497360000000     0.348599   
C278     C      0.055050000000     0.745340000000     0.497360000000     0.348096   
C279     C      0.495240000000     0.745240000000     0.437400000000     0.349819   
C280     C      0.495240000000     0.745240000000     0.057320000000     0.349163   
C281     C      0.185430000000     0.495730000000     0.497370000000     0.348616   
C282     C      0.305050000000     0.494750000000     0.497370000000     0.348438   
C283     C      0.245240000000     0.495240000000     0.437430000000     0.349461   
C284     C      0.245240000000     0.495240000000     0.057330000000     0.349221   
C285     C      0.185420000000     0.745140000000     0.497370000000     0.348735   
C286     C      0.305050000000     0.745340000000     0.497370000000     0.349043   
C287     C      0.245240000000     0.745240000000     0.437410000000     0.349919   
C288     C      0.245240000000     0.745240000000     0.057330000000     0.349268   
C289     C      0.386000000000     0.772430000000     0.497360000000    -0.00527514 
C290     C      0.402070000000     0.745150000000     0.497360000000    -0.0818149  
C291     C      0.385920000000     0.717960000000     0.997360000000    -0.00560082 
C292     C      0.354470000000     0.718050000000     0.997370000000    -0.00554763 
C293     C      0.338410000000     0.745330000000     0.497370000000    -0.0818544  
C294     C      0.354560000000     0.772520000000     0.497360000000    -0.00522453 
C295     C      0.104470000000     0.718050000000     0.497360000000    -0.00543343 
C296     C      0.088410000000     0.745330000000     0.497360000000    -0.0809088  
C297     C      0.104560000000     0.772520000000     0.497360000000    -0.00541403 
C298     C      0.136010000000     0.772430000000     0.497370000000    -0.00503896 
C299     C      0.152070000000     0.745150000000     0.497370000000    -0.0818679  
C300     C      0.135920000000     0.717960000000     0.497360000000    -0.00493296 
C301     C      0.385950000000     0.967280000000     0.497790000000    -0.00496883 
C302     C      0.402070000000     0.494500000000     0.497360000000    -0.0819526  
C303     C      0.385970000000     0.521740000000     0.996930000000    -0.00570944 
C304     C      0.354540000000     0.521780000000     0.996920000000    -0.00566792 
C305     C      0.338410000000     0.494590000000     0.497370000000    -0.081646   
C306     C      0.354480000000     0.967320000000     0.497810000000    -0.00518774 
C307     C      0.104530000000     0.523210000000     0.497790000000    -0.00535923 
C308     C      0.088410000000     0.495980000000     0.497360000000    -0.0808526  
C309     C      0.104510000000     0.968740000000     0.996930000000    -0.00573035 
C310     C      0.135930000000     0.968700000000     0.996920000000    -0.00525836 
C311     C      0.152070000000     0.495890000000     0.497370000000    -0.0817835  
C312     C      0.136000000000     0.523160000000     0.497810000000    -0.00488206 
C313     C      0.225830000000     0.764400000000     0.138170000000    -0.00294968 
C314     C      0.245240000000     0.745240000000     0.154170000000    -0.0819964  
C315     C      0.264650000000     0.726080000000     0.138170000000    -0.00299174 
C316     C      0.264250000000     0.725690000000     0.106580000000    -0.00334986 
C317     C      0.245240000000     0.745240000000     0.090580000000    -0.0810081  
C318     C      0.226220000000     0.764790000000     0.106580000000    -0.00338606 
C319     C      0.264270000000     0.725700000000     0.388170000000    -0.00329789 
C320     C      0.245240000000     0.745240000000     0.404170000000    -0.0822031  
C321     C      0.226210000000     0.764780000000     0.388170000000    -0.00328369 
C322     C      0.225820000000     0.764390000000     0.356580000000    -0.00341641 
C323     C      0.245240000000     0.745240000000     0.340580000000    -0.0819732  
C324     C      0.264660000000     0.726090000000     0.356580000000    -0.0034343  
C325     C      0.225780000000     0.976140000000     0.138180000000    -0.00204175 
C326     C      0.245240000000     0.995240000000     0.154180000000    -0.0870887  
C327     C      0.264700000000     0.514340000000     0.138180000000    -0.00297239 
C328     C      0.264320000000     0.514730000000     0.106590000000    -0.00349067 
C329     C      0.245240000000     0.995240000000     0.090580000000    -0.0841535  
C330     C      0.226160000000     0.975760000000     0.106590000000    -0.00380795 
C331     C      0.225760000000     0.514330000000     0.356590000000    -0.00346253 
C332     C      0.245240000000     0.495240000000     0.340590000000    -0.0820775  
C333     C      0.264720000000     0.976150000000     0.356590000000    -0.00257992 
C334     C      0.264330000000     0.975770000000     0.388180000000    -0.00379921 
C335     C      0.245240000000     0.495240000000     0.404180000000    -0.0820511  
C336     C      0.226150000000     0.514710000000     0.388180000000    -0.00340167 
C337     C      0.218740000000     0.854510000000     0.247820000000    -0.00539828 
C338     C      0.245980000000     0.838410000000     0.247390000000    -0.0816756  
C339     C      0.273200000000     0.854530000000     0.246960000000    -0.00511648 
C340     C      0.273160000000     0.886000000000     0.246950000000    -0.00523568 
C341     C      0.245890000000     0.902070000000     0.247390000000    -0.0816003  
C342     C      0.218700000000     0.885940000000     0.247840000000    -0.00538819 
C343     C      0.217320000000     0.604480000000     0.246950000000    -0.00510692 
C344     C      0.244590000000     0.588410000000     0.247390000000    -0.0816469  
C345     C      0.271780000000     0.604550000000     0.247840000000    -0.00534829 
C346     C      0.271740000000     0.635970000000     0.247820000000    -0.00542139 
C347     C      0.244500000000     0.652070000000     0.247390000000    -0.0816085  
C348     C      0.217270000000     0.635950000000     0.246960000000    -0.00517165 
C349     C      0.014720000000     0.726150000000     0.138150000000     0.000412018
C350     C      0.495240000000     0.745240000000     0.154150000000    -0.0820645  
C351     C      0.475760000000     0.764330000000     0.138150000000    -0.00301139 
C352     C      0.476150000000     0.764720000000     0.106560000000    -0.00343064 
C353     C      0.495240000000     0.745240000000     0.090560000000    -0.0811293  
C354     C      0.014330000000     0.725760000000     0.106560000000     0.00144629 
C355     C      0.014720000000     0.726150000000     0.356560000000     8.47437e-05
C356     C      0.495240000000     0.745240000000     0.340560000000    -0.0821899  
C357     C      0.475760000000     0.764330000000     0.356560000000    -0.00331307 
C358     C      0.476150000000     0.764720000000     0.388150000000    -0.00342382 
C359     C      0.495240000000     0.745240000000     0.404150000000    -0.0820592  
C360     C      0.014330000000     0.725760000000     0.388150000000     0.00148712 
C361     C      0.014790000000     0.976220000000     0.138160000000     0.00138383 
C362     C      0.995240000000     0.995240000000     0.154160000000    -0.0902454  
C363     C      0.475690000000     0.514260000000     0.138160000000    -0.00294355 
C364     C      0.476080000000     0.514650000000     0.106570000000    -0.00343942 
C365     C      0.995240000000     0.995240000000     0.090570000000    -0.0891339  
C366     C      0.014400000000     0.975830000000     0.106570000000     0.00103878 
C367     C      0.014770000000     0.976210000000     0.356570000000     0.00102605 
C368     C      0.495240000000     0.495240000000     0.340570000000    -0.0821339  
C369     C      0.475700000000     0.514270000000     0.356570000000    -0.00335686 
C370     C      0.476090000000     0.514660000000     0.388160000000    -0.00342254 
C371     C      0.495240000000     0.495240000000     0.404160000000    -0.0820114  
C372     C      0.014390000000     0.975820000000     0.388160000000     0.00104992 
C373     C      0.467960000000     0.885920000000     0.247370000000    -0.00521849 
C374     C      0.495150000000     0.902070000000     0.247370000000    -0.0817605  
C375     C      0.022430000000     0.886010000000     0.247360000000    -0.00149718 
C376     C      0.022520000000     0.854560000000     0.247360000000    -0.00147896 
C377     C      0.495330000000     0.838410000000     0.247360000000    -0.0817027  
C378     C      0.468050000000     0.854470000000     0.247360000000    -0.00527616 
C379     C      0.022520000000     0.604560000000     0.247370000000    -0.00125866 
C380     C      0.495320000000     0.588410000000     0.247370000000    -0.0817929  
C381     C      0.468050000000     0.604480000000     0.247360000000    -0.00523236 
C382     C      0.467960000000     0.635920000000     0.247360000000    -0.0052754  
C383     C      0.495150000000     0.652070000000     0.247360000000    -0.0816684  
C384     C      0.022430000000     0.636010000000     0.247360000000    -0.00154106 
C385     C      0.495340000000     0.555060000000     0.747370000000     0.348685   
C386     C      0.495140000000     0.935420000000     0.747370000000     0.348633   
C387     C      0.495240000000     0.495240000000     0.807320000000     0.349904   
C388     C      0.495240000000     0.995240000000     0.687410000000     0.350669   
C389     C      0.495140000000     0.685420000000     0.747360000000     0.348609   
C390     C      0.495340000000     0.805060000000     0.747360000000     0.348855   
C391     C      0.495240000000     0.745240000000     0.687400000000     0.349823   
C392     C      0.495240000000     0.745240000000     0.807320000000     0.34978    
C393     C      0.244750000000     0.555050000000     0.747390000000     0.348537   
C394     C      0.245730000000     0.935430000000     0.747390000000     0.348204   
C395     C      0.245240000000     0.495240000000     0.807340000000     0.349433   
C396     C      0.245240000000     0.995240000000     0.687440000000     0.350564   
C397     C      0.244640000000     0.685420000000     0.747380000000     0.348489   
C398     C      0.245840000000     0.805060000000     0.747380000000     0.348752   
C399     C      0.245240000000     0.745240000000     0.687420000000     0.349819   
C400     C      0.245240000000     0.745240000000     0.807330000000     0.349637   
C401     C      0.435420000000     0.494650000000     0.997370000000     0.34811    
C402     C      0.055050000000     0.495840000000     0.497370000000     0.347991   
C403     C      0.495240000000     0.495240000000     0.937410000000     0.349441   
C404     C      0.995240000000     0.495240000000     0.557320000000     0.350504   
C405     C      0.435420000000     0.745140000000     0.997360000000     0.348217   
C406     C      0.055050000000     0.745340000000     0.997360000000     0.347631   
C407     C      0.495240000000     0.745240000000     0.937400000000     0.349597   
C408     C      0.495240000000     0.745240000000     0.557320000000     0.34977    
C409     C      0.185430000000     0.495730000000     0.997370000000     0.348193   
C410     C      0.305050000000     0.494750000000     0.997370000000     0.348072   
C411     C      0.245240000000     0.495240000000     0.937430000000     0.349509   
C412     C      0.245240000000     0.495240000000     0.557330000000     0.349823   
C413     C      0.185420000000     0.745140000000     0.997370000000     0.348568   
C414     C      0.305060000000     0.745340000000     0.997370000000     0.348411   
C415     C      0.245240000000     0.745240000000     0.937410000000     0.349697   
C416     C      0.245240000000     0.745240000000     0.557330000000     0.349839   
C417     C      0.386010000000     0.772430000000     0.997360000000    -0.00561433 
C418     C      0.402070000000     0.745150000000     0.997360000000    -0.0821116  
C419     C      0.385920000000     0.717960000000     0.497360000000    -0.00531348 
C420     C      0.354470000000     0.718050000000     0.497370000000    -0.00530563 
C421     C      0.338410000000     0.745330000000     0.997370000000    -0.0822477  
C422     C      0.354560000000     0.772520000000     0.997360000000    -0.00544834 
C423     C      0.104470000000     0.718050000000     0.997360000000    -0.00579825 
C424     C      0.088410000000     0.745330000000     0.997360000000    -0.0811627  
C425     C      0.104560000000     0.772520000000     0.997360000000    -0.00577756 
C426     C      0.136010000000     0.772430000000     0.997370000000    -0.00522536 
C427     C      0.152070000000     0.745150000000     0.997370000000    -0.082322   
C428     C      0.135920000000     0.717960000000     0.997360000000    -0.00511679 
C429     C      0.385950000000     0.967280000000     0.997790000000    -0.00525813 
C430     C      0.402070000000     0.494500000000     0.997360000000    -0.0821305  
C431     C      0.385970000000     0.521740000000     0.496930000000    -0.00534192 
C432     C      0.354550000000     0.521780000000     0.496920000000    -0.00547781 
C433     C      0.338400000000     0.494590000000     0.997370000000    -0.0821123  
C434     C      0.354480000000     0.967320000000     0.997810000000    -0.00541813 
C435     C      0.104530000000     0.523200000000     0.997790000000    -0.00549285 
C436     C      0.088410000000     0.495980000000     0.997360000000    -0.0813152  
C437     C      0.104510000000     0.968740000000     0.496930000000    -0.00544961 
C438     C      0.135930000000     0.968700000000     0.496920000000    -0.00499244 
C439     C      0.152070000000     0.495890000000     0.997370000000    -0.08207    
C440     C      0.136000000000     0.523160000000     0.997810000000    -0.00522926 
C441     C      0.225830000000     0.764400000000     0.638170000000    -0.00331181 
C442     C      0.245240000000     0.745240000000     0.654170000000    -0.0819935  
C443     C      0.264640000000     0.726080000000     0.638170000000    -0.00328248 
C444     C      0.264260000000     0.725690000000     0.606580000000    -0.00336354 
C445     C      0.245240000000     0.745240000000     0.590580000000    -0.0820025  
C446     C      0.226220000000     0.764790000000     0.606580000000    -0.00332637 
C447     C      0.264270000000     0.725700000000     0.888170000000    -0.00337471 
C448     C      0.245240000000     0.745240000000     0.904170000000    -0.0820725  
C449     C      0.226210000000     0.764780000000     0.888170000000    -0.00334994 
C450     C      0.225820000000     0.764390000000     0.856580000000    -0.00335981 
C451     C      0.245240000000     0.745240000000     0.840580000000    -0.0819818  
C452     C      0.264660000000     0.726090000000     0.856580000000    -0.00335004 
C453     C      0.225780000000     0.976140000000     0.638180000000    -0.00239557 
C454     C      0.245240000000     0.995240000000     0.654180000000    -0.0871086  
C455     C      0.264700000000     0.514340000000     0.638180000000    -0.00340988 
C456     C      0.264320000000     0.514720000000     0.606590000000    -0.0033356  
C457     C      0.245240000000     0.995240000000     0.590580000000    -0.0851732  
C458     C      0.226160000000     0.975750000000     0.606590000000    -0.00378405 
C459     C      0.225760000000     0.514330000000     0.856590000000    -0.00348522 
C460     C      0.245240000000     0.495240000000     0.840590000000    -0.0819594  
C461     C      0.264720000000     0.976150000000     0.856590000000    -0.0025759  
C462     C      0.264330000000     0.975770000000     0.888180000000    -0.0038084  
C463     C      0.245240000000     0.495240000000     0.904180000000    -0.0820757  
C464     C      0.226150000000     0.514710000000     0.888180000000    -0.00335957 
C465     C      0.218740000000     0.854510000000     0.747820000000    -0.00533936 
C466     C      0.245980000000     0.838410000000     0.747390000000    -0.0818877  
C467     C      0.273200000000     0.854530000000     0.746960000000    -0.00507603 
C468     C      0.273160000000     0.886000000000     0.746950000000    -0.00530893 
C469     C      0.245890000000     0.902070000000     0.747390000000    -0.0816005  
C470     C      0.218700000000     0.885930000000     0.747840000000    -0.00545919 
C471     C      0.217320000000     0.604480000000     0.746950000000    -0.00512238 
C472     C      0.244580000000     0.588410000000     0.747390000000    -0.0816825  
C473     C      0.271780000000     0.604550000000     0.747840000000    -0.00541629 
C474     C      0.271740000000     0.635970000000     0.747820000000    -0.00540872 
C475     C      0.244500000000     0.652070000000     0.747390000000    -0.0817198  
C476     C      0.217270000000     0.635950000000     0.746960000000    -0.00517582 
C477     C      0.014720000000     0.726150000000     0.638150000000     2.64438e-05
C478     C      0.495240000000     0.745240000000     0.654150000000    -0.0820569  
C479     C      0.475760000000     0.764330000000     0.638150000000    -0.00340802 
C480     C      0.476150000000     0.764720000000     0.606560000000    -0.00333639 
C481     C      0.495240000000     0.745240000000     0.590560000000    -0.0821825  
C482     C      0.014330000000     0.725760000000     0.606560000000     0.00156259 
C483     C      0.014720000000     0.726150000000     0.856560000000     0.000132789
C484     C      0.495240000000     0.745240000000     0.840560000000    -0.0821757  
C485     C      0.475760000000     0.764330000000     0.856560000000    -0.00330755 
C486     C      0.476150000000     0.764720000000     0.888150000000    -0.00343667 
C487     C      0.495240000000     0.745240000000     0.904150000000    -0.0819619  
C488     C      0.014330000000     0.725760000000     0.888150000000     0.00145757 
C489     C      0.014790000000     0.976220000000     0.638160000000     0.000984076
C490     C      0.995240000000     0.995240000000     0.654160000000    -0.0902475  
C491     C      0.475690000000     0.514260000000     0.638160000000    -0.00335554 
C492     C      0.476080000000     0.514650000000     0.606570000000    -0.00333156 
C493     C      0.995240000000     0.995240000000     0.590570000000    -0.0902204  
C494     C      0.014400000000     0.975830000000     0.606570000000     0.00117911 
C495     C      0.014770000000     0.976210000000     0.856570000000     0.00106452 
C496     C      0.495240000000     0.495240000000     0.840570000000    -0.0821104  
C497     C      0.475700000000     0.514270000000     0.856570000000    -0.00333277 
C498     C      0.476090000000     0.514660000000     0.888160000000    -0.00344111 
C499     C      0.495240000000     0.495240000000     0.904160000000    -0.0819213  
C500     C      0.014390000000     0.975820000000     0.888160000000     0.0010293  
C501     C      0.467960000000     0.885920000000     0.747370000000    -0.00525156 
C502     C      0.495150000000     0.902070000000     0.747360000000    -0.0818624  
C503     C      0.022430000000     0.886010000000     0.747360000000    -0.00153945 
C504     C      0.022520000000     0.854560000000     0.747360000000    -0.00147468 
C505     C      0.495330000000     0.838410000000     0.747360000000    -0.0818986  
C506     C      0.468050000000     0.854470000000     0.747360000000    -0.00525114 
C507     C      0.022520000000     0.604560000000     0.747360000000    -0.00136341 
C508     C      0.495330000000     0.588410000000     0.747360000000    -0.0818129  
C509     C      0.468050000000     0.604470000000     0.747360000000    -0.00531995 
C510     C      0.467960000000     0.635920000000     0.747360000000    -0.00525637 
C511     C      0.495150000000     0.652070000000     0.747360000000    -0.0817909  
C512     C      0.022430000000     0.636010000000     0.747360000000    -0.00148803 
C513     C      0.995340000000     0.055060000000     0.247370000000     0.344209   
C514     C      0.995140000000     0.435420000000     0.247370000000     0.344432   
C515     C      0.995240000000     0.995240000000     0.307320000000     0.346448   
C516     C      0.995240000000     0.495240000000     0.187410000000     0.34566    
C517     C      0.995140000000     0.185420000000     0.247360000000     0.344481   
C518     C      0.995340000000     0.305060000000     0.247360000000     0.3445     
C519     C      0.995240000000     0.245240000000     0.187400000000     0.345628   
C520     C      0.995240000000     0.245240000000     0.307320000000     0.345485   
C521     C      0.744750000000     0.055050000000     0.247390000000     0.347851   
C522     C      0.745730000000     0.435430000000     0.247390000000     0.348562   
C523     C      0.745240000000     0.995240000000     0.307340000000     0.350515   
C524     C      0.745240000000     0.495240000000     0.187440000000     0.349829   
C525     C      0.744640000000     0.185420000000     0.247380000000     0.34859    
C526     C      0.745830000000     0.305060000000     0.247380000000     0.348603   
C527     C      0.745240000000     0.245240000000     0.187410000000     0.349644   
C528     C      0.745240000000     0.245240000000     0.307330000000     0.349642   
C529     C      0.935420000000     0.994640000000     0.497370000000     0.344455   
C530     C      0.555050000000     0.995840000000     0.997370000000     0.344083   
C531     C      0.995240000000     0.995240000000     0.437410000000     0.346203   
C532     C      0.495240000000     0.995240000000     0.057320000000     0.344821   
C533     C      0.935420000000     0.245140000000     0.497360000000     0.348362   
C534     C      0.555060000000     0.245340000000     0.497360000000     0.348592   
C535     C      0.995240000000     0.245240000000     0.437400000000     0.350626   
C536     C      0.995240000000     0.245240000000     0.057320000000     0.34997    
C537     C      0.685430000000     0.995730000000     0.497370000000     0.344498   
C538     C      0.805050000000     0.994750000000     0.497370000000     0.344277   
C539     C      0.745240000000     0.995240000000     0.437430000000     0.345187   
C540     C      0.745240000000     0.995240000000     0.057330000000     0.344946   
C541     C      0.685420000000     0.245140000000     0.497370000000     0.348925   
C542     C      0.805050000000     0.245340000000     0.497370000000     0.348973   
C543     C      0.745240000000     0.245240000000     0.437410000000     0.349916   
C544     C      0.745240000000     0.245240000000     0.057330000000     0.349253   
C545     C      0.886000000000     0.272430000000     0.497360000000    -0.00535144 
C546     C      0.902070000000     0.245150000000     0.497360000000    -0.0817576  
C547     C      0.885920000000     0.217960000000     0.997360000000    -0.00558066 
C548     C      0.854470000000     0.218050000000     0.997370000000    -0.0056381  
C549     C      0.838410000000     0.245330000000     0.497370000000    -0.081845   
C550     C      0.854560000000     0.272520000000     0.497360000000    -0.00522171 
C551     C      0.604470000000     0.218050000000     0.497360000000    -0.00525811 
C552     C      0.588410000000     0.245330000000     0.497360000000    -0.0817971  
C553     C      0.604560000000     0.272520000000     0.497360000000    -0.0052837  
C554     C      0.636010000000     0.272430000000     0.497370000000    -0.0052905  
C555     C      0.652070000000     0.245150000000     0.497370000000    -0.0819011  
C556     C      0.635920000000     0.217960000000     0.497360000000    -0.00515866 
C557     C      0.885950000000     0.467280000000     0.497790000000    -0.00506866 
C558     C      0.902070000000     0.994500000000     0.497360000000    -0.0854164  
C559     C      0.885970000000     0.021740000000     0.996930000000    -0.00188678 
C560     C      0.854550000000     0.021780000000     0.996920000000    -0.00195027 
C561     C      0.838410000000     0.994590000000     0.497370000000    -0.0851337  
C562     C      0.854480000000     0.467320000000     0.497810000000    -0.0053544  
C563     C      0.604530000000     0.023200000000     0.497790000000    -0.00126569 
C564     C      0.588410000000     0.995980000000     0.497360000000    -0.0852315  
C565     C      0.604510000000     0.468740000000     0.996930000000    -0.00566419 
C566     C      0.635930000000     0.468700000000     0.996920000000    -0.00569784 
C567     C      0.652070000000     0.995890000000     0.497370000000    -0.0851677  
C568     C      0.636000000000     0.023160000000     0.497810000000    -0.0013923  
C569     C      0.725830000000     0.264400000000     0.138170000000    -0.00296215 
C570     C      0.745240000000     0.245240000000     0.154170000000    -0.0819916  
C571     C      0.764650000000     0.226080000000     0.138170000000    -0.00297387 
C572     C      0.764250000000     0.225690000000     0.106580000000    -0.00333352 
C573     C      0.745240000000     0.245240000000     0.090580000000    -0.0810041  
C574     C      0.726220000000     0.264790000000     0.106580000000    -0.00339944 
C575     C      0.764270000000     0.225700000000     0.388170000000    -0.00330403 
C576     C      0.745240000000     0.245240000000     0.404170000000    -0.0822091  
C577     C      0.726210000000     0.264780000000     0.388170000000    -0.0032699  
C578     C      0.725820000000     0.264390000000     0.356580000000    -0.00344506 
C579     C      0.745240000000     0.245240000000     0.340580000000    -0.081969   
C580     C      0.764660000000     0.226090000000     0.356580000000    -0.00340992 
C581     C      0.725780000000     0.476140000000     0.138180000000    -0.00299801 
C582     C      0.745240000000     0.495240000000     0.154180000000    -0.0820051  
C583     C      0.764700000000     0.014340000000     0.138180000000     0.00189812 
C584     C      0.764320000000     0.014730000000     0.106590000000    -8.7554e-05 
C585     C      0.745240000000     0.495240000000     0.090580000000    -0.0810377  
C586     C      0.726160000000     0.475760000000     0.106590000000    -0.00344008 
C587     C      0.725760000000     0.014330000000     0.356590000000     0.00140849 
C588     C      0.745240000000     0.995240000000     0.340590000000    -0.0871766  
C589     C      0.764720000000     0.476150000000     0.356590000000    -0.00348195 
C590     C      0.764330000000     0.475770000000     0.388180000000    -0.00342259 
C591     C      0.745240000000     0.995240000000     0.404180000000    -0.0851953  
C592     C      0.726150000000     0.014710000000     0.388180000000     1.04557e-05
C593     C      0.718740000000     0.354510000000     0.247820000000    -0.00538804 
C594     C      0.745980000000     0.338410000000     0.247390000000    -0.081754   
C595     C      0.773200000000     0.354530000000     0.246960000000    -0.00508781 
C596     C      0.773160000000     0.386000000000     0.246950000000    -0.00515995 
C597     C      0.745890000000     0.402080000000     0.247390000000    -0.0817459  
C598     C      0.718700000000     0.385930000000     0.247840000000    -0.00533256 
C599     C      0.717320000000     0.104480000000     0.246950000000    -0.00527423 
C600     C      0.744590000000     0.088410000000     0.247390000000    -0.0808056  
C601     C      0.771780000000     0.104550000000     0.247840000000    -0.00550439 
C602     C      0.771740000000     0.135970000000     0.247820000000    -0.00510558 
C603     C      0.744500000000     0.152070000000     0.247390000000    -0.0817521  
C604     C      0.717270000000     0.135950000000     0.246960000000    -0.00486876 
C605     C      0.514720000000     0.226150000000     0.138150000000    -0.0029898  
C606     C      0.995240000000     0.245240000000     0.154150000000    -0.0851833  
C607     C      0.975760000000     0.264330000000     0.138150000000    -0.00338935 
C608     C      0.976150000000     0.264720000000     0.106560000000    -0.00252891 
C609     C      0.995240000000     0.245240000000     0.090560000000    -0.0861993  
C610     C      0.514330000000     0.225760000000     0.106560000000    -0.00341012 
C611     C      0.514720000000     0.226150000000     0.356560000000    -0.00331632 
C612     C      0.995240000000     0.245240000000     0.340560000000    -0.0853017  
C613     C      0.975760000000     0.264330000000     0.356560000000    -0.00372225 
C614     C      0.976150000000     0.264720000000     0.388150000000    -0.00250225 
C615     C      0.995240000000     0.245240000000     0.404150000000    -0.0871489  
C616     C      0.514330000000     0.225760000000     0.388150000000    -0.00339342 
C617     C      0.514790000000     0.476220000000     0.138160000000    -0.00292103 
C618     C      0.495240000000     0.495240000000     0.154160000000    -0.0820585  
C619     C      0.975690000000     0.014260000000     0.138160000000     0.00153505 
C620     C      0.976080000000     0.014650000000     0.106570000000     0.000875357
C621     C      0.495240000000     0.495240000000     0.090570000000    -0.080922   
C622     C      0.514400000000     0.475830000000     0.106570000000    -0.00349484 
C623     C      0.514770000000     0.476210000000     0.356570000000    -0.00333603 
C624     C      0.995240000000     0.995240000000     0.340570000000    -0.0903616  
C625     C      0.975700000000     0.014270000000     0.356570000000     0.0011514  
C626     C      0.976090000000     0.014660000000     0.388160000000     0.000895322
C627     C      0.995240000000     0.995240000000     0.404160000000    -0.0902146  
C628     C      0.514390000000     0.475820000000     0.388160000000    -0.00343445 
C629     C      0.967960000000     0.385920000000     0.247370000000    -0.00509125 
C630     C      0.995150000000     0.402070000000     0.247370000000    -0.0852658  
C631     C      0.522430000000     0.386010000000     0.247360000000    -0.0052879  
C632     C      0.522520000000     0.354560000000     0.247360000000    -0.00527007 
C633     C      0.995330000000     0.338410000000     0.247360000000    -0.0852191  
C634     C      0.968050000000     0.354470000000     0.247360000000    -0.00511029 
C635     C      0.522520000000     0.104560000000     0.247370000000    -0.00532212 
C636     C      0.995330000000     0.088410000000     0.247370000000    -0.0845001  
C637     C      0.968050000000     0.104470000000     0.247360000000    -0.00524689 
C638     C      0.967960000000     0.135920000000     0.247360000000    -0.00491426 
C639     C      0.995150000000     0.152070000000     0.247360000000    -0.0852642  
C640     C      0.522430000000     0.136010000000     0.247360000000    -0.00496763 
C641     C      0.995340000000     0.055060000000     0.747370000000     0.343937   
C642     C      0.995140000000     0.435430000000     0.747370000000     0.344535   
C643     C      0.995240000000     0.995240000000     0.807320000000     0.346461   
C644     C      0.995240000000     0.495240000000     0.687410000000     0.345564   
C645     C      0.995140000000     0.185420000000     0.747360000000     0.344481   
C646     C      0.995340000000     0.305060000000     0.747360000000     0.344491   
C647     C      0.995240000000     0.245240000000     0.687400000000     0.345538   
C648     C      0.995240000000     0.245240000000     0.807320000000     0.345503   
C649     C      0.744750000000     0.055050000000     0.747390000000     0.347872   
C650     C      0.745730000000     0.435430000000     0.747390000000     0.348472   
C651     C      0.745240000000     0.995240000000     0.807340000000     0.350541   
C652     C      0.745240000000     0.495240000000     0.687440000000     0.34974    
C653     C      0.744640000000     0.185420000000     0.747380000000     0.348548   
C654     C      0.745830000000     0.305060000000     0.747380000000     0.34854    
C655     C      0.745240000000     0.245240000000     0.687420000000     0.349832   
C656     C      0.745240000000     0.245240000000     0.807330000000     0.349665   
C657     C      0.935420000000     0.994650000000     0.997370000000     0.343984   
C658     C      0.555060000000     0.995840000000     0.497370000000     0.344393   
C659     C      0.995240000000     0.995240000000     0.937410000000     0.345998   
C660     C      0.495240000000     0.995240000000     0.557320000000     0.345424   
C661     C      0.935420000000     0.245140000000     0.997360000000     0.347936   
C662     C      0.555050000000     0.245340000000     0.997360000000     0.348262   
C663     C      0.995240000000     0.245240000000     0.937400000000     0.350406   
C664     C      0.995240000000     0.245240000000     0.557320000000     0.350575   
C665     C      0.685430000000     0.995730000000     0.997370000000     0.343972   
C666     C      0.805050000000     0.994750000000     0.997370000000     0.343878   
C667     C      0.745240000000     0.995240000000     0.937430000000     0.34498    
C668     C      0.745240000000     0.995240000000     0.557330000000     0.345526   
C669     C      0.685420000000     0.245140000000     0.997370000000     0.348491   
C670     C      0.805050000000     0.245340000000     0.997370000000     0.34827    
C671     C      0.745240000000     0.245240000000     0.937410000000     0.349687   
C672     C      0.745240000000     0.245240000000     0.557330000000     0.349855   
C673     C      0.886000000000     0.272430000000     0.997360000000    -0.00554867 
C674     C      0.902070000000     0.245150000000     0.997360000000    -0.0821163  
C675     C      0.885920000000     0.217960000000     0.497360000000    -0.00534522 
C676     C      0.854470000000     0.218050000000     0.497370000000    -0.00530146 
C677     C      0.838410000000     0.245330000000     0.997370000000    -0.0820421  
C678     C      0.854560000000     0.272520000000     0.997360000000    -0.00557152 
C679     C      0.604470000000     0.218050000000     0.997360000000    -0.0055813  
C680     C      0.588410000000     0.245330000000     0.997360000000    -0.0820107  
C681     C      0.604560000000     0.272520000000     0.997360000000    -0.00564394 
C682     C      0.636010000000     0.272430000000     0.997370000000    -0.00552399 
C683     C      0.652070000000     0.245150000000     0.997370000000    -0.0822433  
C684     C      0.635920000000     0.217960000000     0.997360000000    -0.00540308 
C685     C      0.885950000000     0.467280000000     0.997790000000    -0.00541764 
C686     C      0.902070000000     0.994500000000     0.997360000000    -0.0857211  
C687     C      0.885970000000     0.021740000000     0.496930000000    -0.00158737 
C688     C      0.854550000000     0.021780000000     0.496920000000    -0.00167927 
C689     C      0.838410000000     0.994590000000     0.997370000000    -0.0854588  
C690     C      0.854480000000     0.467320000000     0.997810000000    -0.00554547 
C691     C      0.604530000000     0.023200000000     0.997790000000    -0.00157356 
C692     C      0.588410000000     0.995980000000     0.997360000000    -0.0854674  
C693     C      0.604510000000     0.468740000000     0.496930000000    -0.0054354  
C694     C      0.635930000000     0.468700000000     0.496920000000    -0.00538082 
C695     C      0.652070000000     0.995890000000     0.997370000000    -0.0854648  
C696     C      0.636000000000     0.023160000000     0.997810000000    -0.00167147 
C697     C      0.725830000000     0.264400000000     0.638170000000    -0.00335404 
C698     C      0.745240000000     0.245240000000     0.654170000000    -0.081948   
C699     C      0.764650000000     0.226080000000     0.638170000000    -0.00336574 
C700     C      0.764250000000     0.225690000000     0.606580000000    -0.00324165 
C701     C      0.745240000000     0.245240000000     0.590580000000    -0.0820567  
C702     C      0.726220000000     0.264790000000     0.606580000000    -0.00330805 
C703     C      0.764270000000     0.225700000000     0.888170000000    -0.00334427 
C704     C      0.745240000000     0.245240000000     0.904170000000    -0.0820847  
C705     C      0.726210000000     0.264780000000     0.888170000000    -0.00334561 
C706     C      0.725820000000     0.264390000000     0.856580000000    -0.00336051 
C707     C      0.745240000000     0.245240000000     0.840580000000    -0.0819835  
C708     C      0.764660000000     0.226090000000     0.856580000000    -0.00336258 
C709     C      0.725780000000     0.476140000000     0.638180000000    -0.00338221 
C710     C      0.745240000000     0.495240000000     0.654180000000    -0.0819882  
C711     C      0.764700000000     0.014340000000     0.638180000000     0.00152902 
C712     C      0.764320000000     0.014730000000     0.606590000000    -7.14356e-06
C713     C      0.745240000000     0.495240000000     0.590580000000    -0.0821215  
C714     C      0.726160000000     0.475760000000     0.606590000000    -0.00334624 
C715     C      0.725760000000     0.014330000000     0.856590000000     0.00146364 
C716     C      0.745240000000     0.995240000000     0.840590000000    -0.0871901  
C717     C      0.764720000000     0.476150000000     0.856590000000    -0.00345351 
C718     C      0.764330000000     0.475770000000     0.888180000000    -0.00340579 
C719     C      0.745240000000     0.995240000000     0.904180000000    -0.0850866  
C720     C      0.726150000000     0.014710000000     0.888180000000    -2.83215e-05
C721     C      0.718740000000     0.354510000000     0.747820000000    -0.00541512 
C722     C      0.745980000000     0.338410000000     0.747390000000    -0.0817682  
C723     C      0.773210000000     0.354530000000     0.746960000000    -0.00517521 
C724     C      0.773160000000     0.386000000000     0.746950000000    -0.00519796 
C725     C      0.745890000000     0.402070000000     0.747390000000    -0.0816834  
C726     C      0.718700000000     0.385930000000     0.747840000000    -0.00539973 
C727     C      0.717320000000     0.104480000000     0.746950000000    -0.00529928 
C728     C      0.744590000000     0.088410000000     0.747390000000    -0.0808562  
C729     C      0.771780000000     0.104550000000     0.747840000000    -0.0055273  
C730     C      0.771740000000     0.135970000000     0.747820000000    -0.00514305 
C731     C      0.744500000000     0.152070000000     0.747390000000    -0.0817769  
C732     C      0.717270000000     0.135950000000     0.746960000000    -0.00491259 
C733     C      0.514720000000     0.226150000000     0.638150000000    -0.00338794 
C734     C      0.995240000000     0.245240000000     0.654150000000    -0.0851824  
C735     C      0.975760000000     0.264330000000     0.638150000000    -0.00378883 
C736     C      0.976150000000     0.264720000000     0.606560000000    -0.00243    
C737     C      0.995240000000     0.245240000000     0.590560000000    -0.0872706  
C738     C      0.514330000000     0.225760000000     0.606560000000    -0.00331513 
C739     C      0.514720000000     0.226150000000     0.856560000000    -0.00328796 
C740     C      0.995240000000     0.245240000000     0.840560000000    -0.0853134  
C741     C      0.975760000000     0.264330000000     0.856560000000    -0.0036569  
C742     C      0.976150000000     0.264720000000     0.888150000000    -0.00254454 
C743     C      0.995240000000     0.245240000000     0.904150000000    -0.0870439  
C744     C      0.514330000000     0.225760000000     0.888150000000    -0.00341577 
C745     C      0.514790000000     0.476220000000     0.638160000000    -0.00335525 
C746     C      0.495240000000     0.495240000000     0.654160000000    -0.0820333  
C747     C      0.975690000000     0.014260000000     0.638160000000     0.0011384  
C748     C      0.976080000000     0.014650000000     0.606570000000     0.000986699
C749     C      0.495240000000     0.495240000000     0.590570000000    -0.0820077  
C750     C      0.514400000000     0.475830000000     0.606570000000    -0.00333179 
C751     C      0.514780000000     0.476210000000     0.856570000000    -0.00333257 
C752     C      0.995240000000     0.995240000000     0.840570000000    -0.0903575  
C753     C      0.975700000000     0.014270000000     0.856570000000     0.00118341 
C754     C      0.976090000000     0.014660000000     0.888160000000     0.000867994
C755     C      0.995240000000     0.995240000000     0.904160000000    -0.0901198  
C756     C      0.514390000000     0.475820000000     0.888160000000    -0.00344121 
C757     C      0.967960000000     0.385920000000     0.747370000000    -0.00516183 
C758     C      0.995150000000     0.402070000000     0.747360000000    -0.0852277  
C759     C      0.522430000000     0.386010000000     0.747360000000    -0.00533354 
C760     C      0.522520000000     0.354560000000     0.747360000000    -0.00525626 
C761     C      0.995330000000     0.338410000000     0.747360000000    -0.0852816  
C762     C      0.968050000000     0.354480000000     0.747360000000    -0.00511694 
C763     C      0.522520000000     0.104560000000     0.747360000000    -0.00532256 
C764     C      0.995330000000     0.088410000000     0.747360000000    -0.0844254  
C765     C      0.968050000000     0.104470000000     0.747360000000    -0.00535455 
C766     C      0.967960000000     0.135920000000     0.747360000000    -0.00486841 
C767     C      0.995150000000     0.152070000000     0.747360000000    -0.0853491  
C768     C      0.522430000000     0.136010000000     0.747360000000    -0.00501148 
C769     C      0.995340000000     0.555060000000     0.247370000000     0.34485    
C770     C      0.995140000000     0.935420000000     0.247370000000     0.344297   
C771     C      0.995240000000     0.495240000000     0.307320000000     0.345619   
C772     C      0.995240000000     0.995240000000     0.187410000000     0.346481   
C773     C      0.995140000000     0.685430000000     0.247360000000     0.344536   
C774     C      0.995340000000     0.805050000000     0.247360000000     0.344701   
C775     C      0.995240000000     0.745240000000     0.187400000000     0.345623   
C776     C      0.995240000000     0.745240000000     0.307320000000     0.34548    
C777     C      0.744750000000     0.555050000000     0.247390000000     0.348496   
C778     C      0.745730000000     0.935430000000     0.247390000000     0.348263   
C779     C      0.745240000000     0.495240000000     0.307340000000     0.349696   
C780     C      0.745240000000     0.995240000000     0.187440000000     0.350635   
C781     C      0.744640000000     0.685430000000     0.247380000000     0.34866    
C782     C      0.745830000000     0.805050000000     0.247380000000     0.348676   
C783     C      0.745240000000     0.745240000000     0.187410000000     0.349649   
C784     C      0.745240000000     0.745240000000     0.307330000000     0.349645   
C785     C      0.935420000000     0.494640000000     0.497370000000     0.348634   
C786     C      0.555050000000     0.495840000000     0.997370000000     0.348439   
C787     C      0.995240000000     0.495240000000     0.437410000000     0.350472   
C788     C      0.495240000000     0.495240000000     0.057320000000     0.349082   
C789     C      0.935420000000     0.745140000000     0.497360000000     0.348383   
C790     C      0.555060000000     0.745340000000     0.497360000000     0.348614   
C791     C      0.995240000000     0.745240000000     0.437400000000     0.350641   
C792     C      0.995240000000     0.745240000000     0.057320000000     0.349985   
C793     C      0.685430000000     0.495730000000     0.497370000000     0.348653   
C794     C      0.805050000000     0.494750000000     0.497370000000     0.348414   
C795     C      0.745240000000     0.495240000000     0.437430000000     0.349457   
C796     C      0.745240000000     0.495240000000     0.057330000000     0.349209   
C797     C      0.685420000000     0.745140000000     0.497370000000     0.348677   
C798     C      0.805050000000     0.745340000000     0.497370000000     0.34898    
C799     C      0.745240000000     0.745240000000     0.437410000000     0.349933   
C800     C      0.745240000000     0.745240000000     0.057330000000     0.349269   
C801     C      0.886000000000     0.772430000000     0.497360000000    -0.00529162 
C802     C      0.902070000000     0.745150000000     0.497360000000    -0.0817823  
C803     C      0.885920000000     0.717960000000     0.997360000000    -0.00562591 
C804     C      0.854470000000     0.718050000000     0.997370000000    -0.00558479 
C805     C      0.838410000000     0.745330000000     0.497370000000    -0.0818342  
C806     C      0.854560000000     0.772520000000     0.497360000000    -0.00523924 
C807     C      0.604470000000     0.718050000000     0.497360000000    -0.00524294 
C808     C      0.588410000000     0.745330000000     0.497360000000    -0.081821   
C809     C      0.604560000000     0.772520000000     0.497360000000    -0.00524505 
C810     C      0.636010000000     0.772430000000     0.497370000000    -0.00533303 
C811     C      0.652070000000     0.745150000000     0.497370000000    -0.0817959  
C812     C      0.635920000000     0.717960000000     0.497360000000    -0.00522245 
C813     C      0.885950000000     0.967280000000     0.497790000000    -0.00499518 
C814     C      0.902070000000     0.494500000000     0.497360000000    -0.0819208  
C815     C      0.885970000000     0.521740000000     0.996930000000    -0.00570718 
C816     C      0.854550000000     0.521780000000     0.996920000000    -0.00571318 
C817     C      0.838410000000     0.494590000000     0.497370000000    -0.081628   
C818     C      0.854480000000     0.967320000000     0.497810000000    -0.00520011 
C819     C      0.604530000000     0.523210000000     0.497790000000    -0.00520091 
C820     C      0.588410000000     0.495980000000     0.497360000000    -0.0817516  
C821     C      0.604510000000     0.968740000000     0.996930000000    -0.00557182 
C822     C      0.635930000000     0.968700000000     0.996920000000    -0.00553144 
C823     C      0.652070000000     0.495890000000     0.497370000000    -0.0817345  
C824     C      0.636000000000     0.523160000000     0.497810000000    -0.00516412 
C825     C      0.725830000000     0.764400000000     0.138170000000    -0.00296211 
C826     C      0.745240000000     0.745240000000     0.154170000000    -0.0820047  
C827     C      0.764650000000     0.726080000000     0.138170000000    -0.00298791 
C828     C      0.764250000000     0.725690000000     0.106580000000    -0.00334882 
C829     C      0.745240000000     0.745240000000     0.090580000000    -0.0810152  
C830     C      0.726220000000     0.764790000000     0.106580000000    -0.00339873 
C831     C      0.764270000000     0.725700000000     0.388170000000    -0.00328733 
C832     C      0.745240000000     0.745240000000     0.404170000000    -0.0822291  
C833     C      0.726210000000     0.764780000000     0.388170000000    -0.00326091 
C834     C      0.725820000000     0.764390000000     0.356580000000    -0.00344818 
C835     C      0.745240000000     0.745240000000     0.340580000000    -0.0819729  
C836     C      0.764660000000     0.726090000000     0.356580000000    -0.00343818 
C837     C      0.725780000000     0.976140000000     0.138180000000    -0.00208437 
C838     C      0.745240000000     0.995240000000     0.154180000000    -0.0870872  
C839     C      0.764700000000     0.514340000000     0.138180000000    -0.0029749  
C840     C      0.764320000000     0.514730000000     0.106590000000    -0.00348979 
C841     C      0.745240000000     0.995240000000     0.090580000000    -0.0841634  
C842     C      0.726160000000     0.975760000000     0.106590000000    -0.00380786 
C843     C      0.725760000000     0.514330000000     0.356590000000    -0.00347556 
C844     C      0.745240000000     0.495240000000     0.340590000000    -0.0820862  
C845     C      0.764720000000     0.976150000000     0.356590000000    -0.00257524 
C846     C      0.764330000000     0.975770000000     0.388180000000    -0.0037983  
C847     C      0.745240000000     0.495240000000     0.404180000000    -0.0820584  
C848     C      0.726150000000     0.514710000000     0.388180000000    -0.00341589 
C849     C      0.718740000000     0.854510000000     0.247820000000    -0.00540596 
C850     C      0.745980000000     0.838410000000     0.247390000000    -0.0816782  
C851     C      0.773200000000     0.854530000000     0.246960000000    -0.00510612 
C852     C      0.773160000000     0.886000000000     0.246950000000    -0.0052257  
C853     C      0.745890000000     0.902070000000     0.247390000000    -0.0816027  
C854     C      0.718700000000     0.885940000000     0.247840000000    -0.00539735 
C855     C      0.717320000000     0.604480000000     0.246950000000    -0.00511662 
C856     C      0.744590000000     0.588410000000     0.247390000000    -0.0816518  
C857     C      0.771780000000     0.604550000000     0.247840000000    -0.00533873 
C858     C      0.771740000000     0.635970000000     0.247820000000    -0.00541237 
C859     C      0.744500000000     0.652070000000     0.247390000000    -0.0816127  
C860     C      0.717270000000     0.635950000000     0.246960000000    -0.00518293 
C861     C      0.514720000000     0.726150000000     0.138150000000    -0.0030031  
C862     C      0.995240000000     0.745240000000     0.154150000000    -0.0851913  
C863     C      0.975760000000     0.764330000000     0.138150000000    -0.00338729 
C864     C      0.976150000000     0.764720000000     0.106560000000    -0.00252338 
C865     C      0.995240000000     0.745240000000     0.090560000000    -0.0862089  
C866     C      0.514330000000     0.725760000000     0.106560000000    -0.00342261 
C867     C      0.514720000000     0.726150000000     0.356560000000    -0.00333017 
C868     C      0.995240000000     0.745240000000     0.340560000000    -0.0853102  
C869     C      0.975760000000     0.764330000000     0.356560000000    -0.00372108 
C870     C      0.976150000000     0.764720000000     0.388150000000    -0.00249733 
C871     C      0.995240000000     0.745240000000     0.404150000000    -0.0871596  
C872     C      0.514330000000     0.725760000000     0.388150000000    -0.00340617 
C873     C      0.514790000000     0.976220000000     0.138160000000    -0.00200557 
C874     C      0.495240000000     0.995240000000     0.154160000000    -0.0871408  
C875     C      0.975690000000     0.514260000000     0.138160000000    -0.0033252  
C876     C      0.976080000000     0.514650000000     0.106570000000    -0.00252554 
C877     C      0.495240000000     0.995240000000     0.090570000000    -0.0840536  
C878     C      0.514400000000     0.975830000000     0.106570000000    -0.00386114 
C879     C      0.514770000000     0.976210000000     0.356570000000    -0.00239232 
C880     C      0.995240000000     0.495240000000     0.340570000000    -0.0852733  
C881     C      0.975700000000     0.514270000000     0.356570000000    -0.00373049 
C882     C      0.976090000000     0.514660000000     0.388160000000    -0.00251451 
C883     C      0.995240000000     0.495240000000     0.404160000000    -0.0871027  
C884     C      0.514390000000     0.975820000000     0.388160000000    -0.00382706 
C885     C      0.967960000000     0.885920000000     0.247370000000    -0.00509901 
C886     C      0.995150000000     0.902070000000     0.247370000000    -0.0852528  
C887     C      0.522430000000     0.886010000000     0.247360000000    -0.00528878 
C888     C      0.522520000000     0.854560000000     0.247360000000    -0.005297   
C889     C      0.995330000000     0.838410000000     0.247360000000    -0.0851428  
C890     C      0.968050000000     0.854470000000     0.247360000000    -0.00515208 
C891     C      0.522520000000     0.604560000000     0.247370000000    -0.00516972 
C892     C      0.995330000000     0.588410000000     0.247370000000    -0.085357   
C893     C      0.968050000000     0.604480000000     0.247360000000    -0.00506271 
C894     C      0.967960000000     0.635920000000     0.247360000000    -0.00522231 
C895     C      0.995150000000     0.652070000000     0.247360000000    -0.0851233  
C896     C      0.522430000000     0.636010000000     0.247360000000    -0.00528762 
C897     C      0.995340000000     0.555060000000     0.747370000000     0.344566   
C898     C      0.995140000000     0.935420000000     0.747370000000     0.344204   
C899     C      0.995240000000     0.495240000000     0.807320000000     0.345632   
C900     C      0.995240000000     0.995240000000     0.687410000000     0.346393   
C901     C      0.995140000000     0.685420000000     0.747360000000     0.34442    
C902     C      0.995340000000     0.805060000000     0.747360000000     0.344496   
C903     C      0.995240000000     0.745240000000     0.687400000000     0.345541   
C904     C      0.995240000000     0.745240000000     0.807320000000     0.345505   
C905     C      0.744750000000     0.555050000000     0.747390000000     0.348553   
C906     C      0.745730000000     0.935430000000     0.747390000000     0.348235   
C907     C      0.745240000000     0.495240000000     0.807340000000     0.34971    
C908     C      0.745240000000     0.995240000000     0.687440000000     0.35058    
C909     C      0.744640000000     0.685420000000     0.747380000000     0.34852    
C910     C      0.745830000000     0.805060000000     0.747380000000     0.348518   
C911     C      0.745240000000     0.745240000000     0.687420000000     0.349834   
C912     C      0.745240000000     0.745240000000     0.807330000000     0.349667   
C913     C      0.935420000000     0.494650000000     0.997370000000     0.347897   
C914     C      0.555060000000     0.495840000000     0.497370000000     0.348484   
C915     C      0.995240000000     0.495240000000     0.937410000000     0.350256   
C916     C      0.495240000000     0.495240000000     0.557320000000     0.349699   
C917     C      0.935420000000     0.745140000000     0.997360000000     0.347933   
C918     C      0.555050000000     0.745340000000     0.997360000000     0.348268   
C919     C      0.995240000000     0.745240000000     0.937400000000     0.350421   
C920     C      0.995240000000     0.745240000000     0.557320000000     0.35059    
C921     C      0.685430000000     0.495730000000     0.997370000000     0.348103   
C922     C      0.805050000000     0.494750000000     0.997370000000     0.348024   
C923     C      0.745240000000     0.495240000000     0.937430000000     0.349505   
C924     C      0.745240000000     0.495240000000     0.557330000000     0.349823   
C925     C      0.685420000000     0.745140000000     0.997370000000     0.348509   
C926     C      0.805050000000     0.745340000000     0.997370000000     0.348546   
C927     C      0.745240000000     0.745240000000     0.937410000000     0.349704   
C928     C      0.745240000000     0.745240000000     0.557330000000     0.349865   
C929     C      0.886000000000     0.772430000000     0.997360000000    -0.00561829 
C930     C      0.902070000000     0.745150000000     0.997360000000    -0.0820787  
C931     C      0.885920000000     0.717960000000     0.497360000000    -0.00534143 
C932     C      0.854470000000     0.718050000000     0.497370000000    -0.00531805 
C933     C      0.838410000000     0.745330000000     0.997370000000    -0.0821654  
C934     C      0.854560000000     0.772520000000     0.997360000000    -0.00548436 
C935     C      0.604470000000     0.718050000000     0.997360000000    -0.00564406 
C936     C      0.588410000000     0.745330000000     0.997360000000    -0.0819933  
C937     C      0.604560000000     0.772520000000     0.997360000000    -0.00564441 
C938     C      0.636010000000     0.772430000000     0.997370000000    -0.00550326 
C939     C      0.652070000000     0.745150000000     0.997370000000    -0.0822615  
C940     C      0.635920000000     0.717960000000     0.997360000000    -0.00538978 
C941     C      0.885950000000     0.967280000000     0.997790000000    -0.00526634 
C942     C      0.902070000000     0.494500000000     0.997360000000    -0.0821147  
C943     C      0.885970000000     0.521740000000     0.496930000000    -0.00535452 
C944     C      0.854550000000     0.521780000000     0.496920000000    -0.00548602 
C945     C      0.838410000000     0.494590000000     0.997370000000    -0.082003   
C946     C      0.854480000000     0.967320000000     0.997810000000    -0.00546914 
C947     C      0.604530000000     0.523200000000     0.997790000000    -0.00535568 
C948     C      0.588410000000     0.495980000000     0.997360000000    -0.0821523  
C949     C      0.604510000000     0.968740000000     0.496930000000    -0.005269   
C950     C      0.635930000000     0.968700000000     0.496920000000    -0.00526164 
C951     C      0.652070000000     0.495890000000     0.997370000000    -0.081996   
C952     C      0.636000000000     0.523160000000     0.997810000000    -0.00551874 
C953     C      0.725830000000     0.764400000000     0.638170000000    -0.00335416 
C954     C      0.745240000000     0.745240000000     0.654170000000    -0.0819598  
C955     C      0.764650000000     0.726080000000     0.638170000000    -0.0033801  
C956     C      0.764250000000     0.725690000000     0.606580000000    -0.00325773 
C957     C      0.745240000000     0.745240000000     0.590580000000    -0.0820657  
C958     C      0.726220000000     0.764790000000     0.606580000000    -0.00330773 
C959     C      0.764270000000     0.725700000000     0.888170000000    -0.00336851 
C960     C      0.745240000000     0.745240000000     0.904170000000    -0.0820947  
C961     C      0.726210000000     0.764780000000     0.888170000000    -0.00333101 
C962     C      0.725820000000     0.764390000000     0.856580000000    -0.0033864  
C963     C      0.745240000000     0.745240000000     0.840580000000    -0.0819927  
C964     C      0.764660000000     0.726090000000     0.856580000000    -0.00334935 
C965     C      0.725780000000     0.976140000000     0.638180000000    -0.00240884 
C966     C      0.745240000000     0.995240000000     0.654180000000    -0.08712    
C967     C      0.764700000000     0.514340000000     0.638180000000    -0.0034071  
C968     C      0.764320000000     0.514720000000     0.606590000000    -0.00333493 
C969     C      0.745240000000     0.995240000000     0.590580000000    -0.0851829  
C970     C      0.726160000000     0.975750000000     0.606590000000    -0.00379805 
C971     C      0.725760000000     0.514330000000     0.856590000000    -0.00344664 
C972     C      0.745240000000     0.495240000000     0.840590000000    -0.0820807  
C973     C      0.764720000000     0.976150000000     0.856590000000    -0.00251857 
C974     C      0.764330000000     0.975770000000     0.888180000000    -0.00383466 
C975     C      0.745240000000     0.495240000000     0.904180000000    -0.0820651  
C976     C      0.726150000000     0.514710000000     0.888180000000    -0.00339938 
C977     C      0.718740000000     0.854510000000     0.747820000000    -0.00542556 
C978     C      0.745980000000     0.838410000000     0.747390000000    -0.0817446  
C979     C      0.773210000000     0.854530000000     0.746960000000    -0.00519999 
C980     C      0.773160000000     0.886000000000     0.746950000000    -0.0052228  
C981     C      0.745890000000     0.902070000000     0.747390000000    -0.0816467  
C982     C      0.718700000000     0.885930000000     0.747840000000    -0.00542052 
C983     C      0.717320000000     0.604480000000     0.746950000000    -0.00516533 
C984     C      0.744590000000     0.588410000000     0.747390000000    -0.0816878  
C985     C      0.771780000000     0.604550000000     0.747840000000    -0.00537773 
C986     C      0.771740000000     0.635970000000     0.747820000000    -0.005408   
C987     C      0.744500000000     0.652070000000     0.747390000000    -0.0817343  
C988     C      0.717270000000     0.635950000000     0.746960000000    -0.00517114 
C989     C      0.514720000000     0.726150000000     0.638150000000    -0.00340014 
C990     C      0.995240000000     0.745240000000     0.654150000000    -0.0851928  
C991     C      0.975760000000     0.764330000000     0.638150000000    -0.00378552 
C992     C      0.976150000000     0.764720000000     0.606560000000    -0.00242505 
C993     C      0.995240000000     0.745240000000     0.590560000000    -0.0872802  
C994     C      0.514330000000     0.725760000000     0.606560000000    -0.00332839 
C995     C      0.514720000000     0.726150000000     0.856560000000    -0.00330057 
C996     C      0.995240000000     0.745240000000     0.840560000000    -0.0853245  
C997     C      0.975760000000     0.764330000000     0.856560000000    -0.00365448 
C998     C      0.976150000000     0.764720000000     0.888150000000    -0.00254046 
C999     C      0.995240000000     0.745240000000     0.904150000000    -0.0870543  
C1000    C      0.514330000000     0.725760000000     0.888150000000    -0.00342944 
C1001    C      0.514790000000     0.976220000000     0.638160000000    -0.00243679 
C1002    C      0.495240000000     0.995240000000     0.654160000000    -0.0871254  
C1003    C      0.975690000000     0.514260000000     0.638160000000    -0.00373092 
C1004    C      0.976080000000     0.514650000000     0.606570000000    -0.00242235 
C1005    C      0.495240000000     0.995240000000     0.590570000000    -0.085143   
C1006    C      0.514400000000     0.975830000000     0.606570000000    -0.00369906 
C1007    C      0.514780000000     0.976210000000     0.856570000000    -0.00242313 
C1008    C      0.995240000000     0.495240000000     0.840570000000    -0.0852834  
C1009    C      0.975700000000     0.514270000000     0.856570000000    -0.0036916  
C1010    C      0.976090000000     0.514660000000     0.888160000000    -0.00254466 
C1011    C      0.995240000000     0.495240000000     0.904160000000    -0.087003   
C1012    C      0.514390000000     0.975820000000     0.888160000000    -0.00381613 
C1013    C      0.967960000000     0.885920000000     0.747370000000    -0.00515864 
C1014    C      0.995150000000     0.902070000000     0.747360000000    -0.0852708  
C1015    C      0.522430000000     0.886010000000     0.747360000000    -0.00531655 
C1016    C      0.522520000000     0.854560000000     0.747360000000    -0.00527619 
C1017    C      0.995330000000     0.838410000000     0.747360000000    -0.0852564  
C1018    C      0.968050000000     0.854470000000     0.747360000000    -0.00514899 
C1019    C      0.522520000000     0.604560000000     0.747360000000    -0.00519166 
C1020    C      0.995330000000     0.588410000000     0.747360000000    -0.0852614  
C1021    C      0.968050000000     0.604470000000     0.747360000000    -0.00519661 
C1022    C      0.967960000000     0.635920000000     0.747360000000    -0.0051373  
C1023    C      0.995150000000     0.652070000000     0.747360000000    -0.0852929  
C1024    C      0.522430000000     0.636010000000     0.747360000000    -0.00529274 
Cu1      Cu     0.467350000000     0.495490000000     0.247370000000     0.840643   
Cu2      Cu     0.023130000000     0.994990000000     0.247370000000     0.839904   
Cu3      Cu     0.467350000000     0.245490000000     0.247360000000     0.840646   
Cu4      Cu     0.023130000000     0.244990000000     0.247360000000     0.843476   
Cu5      Cu     0.217360000000     0.495050000000     0.247390000000     0.840604   
Cu6      Cu     0.273120000000     0.995430000000     0.247390000000     0.8368     
Cu7      Cu     0.217350000000     0.245670000000     0.247370000000     0.840619   
Cu8      Cu     0.273130000000     0.244810000000     0.247370000000     0.840529   
Cu9      Cu     0.994810000000     0.023130000000     0.497370000000     0.839683   
Cu10     Cu     0.495670000000     0.467350000000     0.997370000000     0.837016   
Cu11     Cu     0.994990000000     0.273130000000     0.497360000000     0.836987   
Cu12     Cu     0.495490000000     0.217350000000     0.997360000000     0.837094   
Cu13     Cu     0.245420000000     0.023120000000     0.497380000000     0.843083   
Cu14     Cu     0.245050000000     0.467360000000     0.997380000000     0.836979   
Cu15     Cu     0.244990000000     0.273130000000     0.497370000000     0.840356   
Cu16     Cu     0.245490000000     0.217350000000     0.997370000000     0.837041   
Cu17     Cu     0.467350000000     0.495490000000     0.747370000000     0.840635   
Cu18     Cu     0.023130000000     0.994990000000     0.747370000000     0.839827   
Cu19     Cu     0.467350000000     0.245490000000     0.747360000000     0.840631   
Cu20     Cu     0.023130000000     0.244990000000     0.747360000000     0.843443   
Cu21     Cu     0.217360000000     0.495060000000     0.747390000000     0.840551   
Cu22     Cu     0.273120000000     0.995430000000     0.747390000000     0.836732   
Cu23     Cu     0.217350000000     0.245680000000     0.747370000000     0.840484   
Cu24     Cu     0.273120000000     0.244810000000     0.747370000000     0.840368   
Cu25     Cu     0.994800000000     0.023130000000     0.997370000000     0.836393   
Cu26     Cu     0.495670000000     0.467350000000     0.497370000000     0.840505   
Cu27     Cu     0.994990000000     0.273130000000     0.997360000000     0.833529   
Cu28     Cu     0.495490000000     0.217350000000     0.497360000000     0.840678   
Cu29     Cu     0.245420000000     0.023120000000     0.997380000000     0.839637   
Cu30     Cu     0.245060000000     0.467360000000     0.497380000000     0.840403   
Cu31     Cu     0.244990000000     0.273130000000     0.997370000000     0.836998   
Cu32     Cu     0.245490000000     0.217350000000     0.497370000000     0.84054    
Cu33     Cu     0.467350000000     0.995490000000     0.247370000000     0.836838   
Cu34     Cu     0.023130000000     0.494990000000     0.247370000000     0.843352   
Cu35     Cu     0.467350000000     0.745490000000     0.247360000000     0.840677   
Cu36     Cu     0.023130000000     0.744990000000     0.247360000000     0.843358   
Cu37     Cu     0.217360000000     0.995050000000     0.247390000000     0.837084   
Cu38     Cu     0.273120000000     0.495430000000     0.247390000000     0.840432   
Cu39     Cu     0.217350000000     0.745670000000     0.247370000000     0.840761   
Cu40     Cu     0.273130000000     0.744810000000     0.247370000000     0.840524   
Cu41     Cu     0.994810000000     0.523130000000     0.497370000000     0.836895   
Cu42     Cu     0.495670000000     0.967350000000     0.997370000000     0.832679   
Cu43     Cu     0.994990000000     0.773130000000     0.497360000000     0.837062   
Cu44     Cu     0.495490000000     0.717350000000     0.997360000000     0.83701    
Cu45     Cu     0.245420000000     0.523120000000     0.497380000000     0.840295   
Cu46     Cu     0.245050000000     0.967360000000     0.997380000000     0.832604   
Cu47     Cu     0.244990000000     0.773130000000     0.497370000000     0.840401   
Cu48     Cu     0.245490000000     0.717350000000     0.997370000000     0.836981   
Cu49     Cu     0.467350000000     0.995490000000     0.747370000000     0.836952   
Cu50     Cu     0.023130000000     0.494990000000     0.747370000000     0.843298   
Cu51     Cu     0.467350000000     0.745490000000     0.747360000000     0.840633   
Cu52     Cu     0.023130000000     0.744990000000     0.747360000000     0.843445   
Cu53     Cu     0.217360000000     0.995060000000     0.747390000000     0.837016   
Cu54     Cu     0.273120000000     0.495420000000     0.747390000000     0.840223   
Cu55     Cu     0.217350000000     0.745670000000     0.747370000000     0.840477   
Cu56     Cu     0.273120000000     0.744810000000     0.747370000000     0.840371   
Cu57     Cu     0.994800000000     0.523130000000     0.997370000000     0.833608   
Cu58     Cu     0.495670000000     0.967350000000     0.497370000000     0.836146   
Cu59     Cu     0.994990000000     0.773130000000     0.997360000000     0.833603   
Cu60     Cu     0.495490000000     0.717350000000     0.497360000000     0.840598   
Cu61     Cu     0.245420000000     0.523120000000     0.997380000000     0.836866   
Cu62     Cu     0.245060000000     0.967360000000     0.497380000000     0.836042   
Cu63     Cu     0.244990000000     0.773130000000     0.997370000000     0.837101   
Cu64     Cu     0.245490000000     0.717350000000     0.497370000000     0.840436   
Cu65     Cu     0.967350000000     0.495490000000     0.247370000000     0.836317   
Cu66     Cu     0.523130000000     0.994990000000     0.247370000000     0.837099   
Cu67     Cu     0.967350000000     0.245490000000     0.247360000000     0.836293   
Cu68     Cu     0.523130000000     0.244990000000     0.247360000000     0.840699   
Cu69     Cu     0.717360000000     0.495050000000     0.247390000000     0.840523   
Cu70     Cu     0.773120000000     0.995430000000     0.247390000000     0.836874   
Cu71     Cu     0.717350000000     0.245670000000     0.247370000000     0.840538   
Cu72     Cu     0.773130000000     0.244810000000     0.247370000000     0.840603   
Cu73     Cu     0.494800000000     0.023130000000     0.497370000000     0.843329   
Cu74     Cu     0.995670000000     0.467350000000     0.997370000000     0.833376   
Cu75     Cu     0.494990000000     0.273130000000     0.497360000000     0.840498   
Cu76     Cu     0.995490000000     0.217350000000     0.997360000000     0.833591   
Cu77     Cu     0.745420000000     0.023120000000     0.497380000000     0.843106   
Cu78     Cu     0.745060000000     0.467360000000     0.997380000000     0.836814   
Cu79     Cu     0.744990000000     0.273130000000     0.497370000000     0.84049    
Cu80     Cu     0.745490000000     0.217350000000     0.997370000000     0.837039   
Cu81     Cu     0.967350000000     0.495490000000     0.747370000000     0.836242   
Cu82     Cu     0.523130000000     0.994990000000     0.747370000000     0.837059   
Cu83     Cu     0.967350000000     0.245490000000     0.747360000000     0.836243   
Cu84     Cu     0.523130000000     0.244990000000     0.747360000000     0.840684   
Cu85     Cu     0.717360000000     0.495060000000     0.747390000000     0.840494   
Cu86     Cu     0.773120000000     0.995430000000     0.747390000000     0.836837   
Cu87     Cu     0.717350000000     0.245680000000     0.747370000000     0.840527   
Cu88     Cu     0.773130000000     0.244810000000     0.747370000000     0.840434   
Cu89     Cu     0.494800000000     0.023130000000     0.997370000000     0.839899   
Cu90     Cu     0.995670000000     0.467350000000     0.497370000000     0.836886   
Cu91     Cu     0.494990000000     0.273130000000     0.997360000000     0.837063   
Cu92     Cu     0.995490000000     0.217350000000     0.497360000000     0.837049   
Cu93     Cu     0.745420000000     0.023120000000     0.997380000000     0.839779   
Cu94     Cu     0.745050000000     0.467360000000     0.497380000000     0.840273   
Cu95     Cu     0.744990000000     0.273130000000     0.997370000000     0.837001   
Cu96     Cu     0.745490000000     0.217350000000     0.497370000000     0.840522   
Cu97     Cu     0.967350000000     0.995490000000     0.247370000000     0.832528   
Cu98     Cu     0.523130000000     0.494990000000     0.247370000000     0.84055    
Cu99     Cu     0.967350000000     0.745490000000     0.247360000000     0.836323   
Cu100    Cu     0.523130000000     0.744990000000     0.247360000000     0.840579   
Cu101    Cu     0.717360000000     0.995050000000     0.247390000000     0.837002   
Cu102    Cu     0.773120000000     0.495430000000     0.247390000000     0.840504   
Cu103    Cu     0.717350000000     0.745670000000     0.247370000000     0.840681   
Cu104    Cu     0.773130000000     0.744810000000     0.247370000000     0.840597   
Cu105    Cu     0.494800000000     0.523130000000     0.497370000000     0.840544   
Cu106    Cu     0.995670000000     0.967350000000     0.997370000000     0.829056   
Cu107    Cu     0.494990000000     0.773130000000     0.497360000000     0.840572   
Cu108    Cu     0.995490000000     0.717350000000     0.997360000000     0.833505   
Cu109    Cu     0.745420000000     0.523120000000     0.497380000000     0.840316   
Cu110    Cu     0.745060000000     0.967360000000     0.997380000000     0.832439   
Cu111    Cu     0.744990000000     0.773130000000     0.497370000000     0.840535   
Cu112    Cu     0.745490000000     0.717350000000     0.997370000000     0.836978   
Cu113    Cu     0.967350000000     0.995490000000     0.747370000000     0.832577   
Cu114    Cu     0.523130000000     0.494990000000     0.747370000000     0.840533   
Cu115    Cu     0.967350000000     0.745490000000     0.747360000000     0.836244   
Cu116    Cu     0.523130000000     0.744990000000     0.747360000000     0.840683   
Cu117    Cu     0.717360000000     0.995060000000     0.747390000000     0.836957   
Cu118    Cu     0.773120000000     0.495420000000     0.747390000000     0.840327   
Cu119    Cu     0.717350000000     0.745670000000     0.747370000000     0.840519   
Cu120    Cu     0.773130000000     0.744810000000     0.747370000000     0.840438   
Cu121    Cu     0.494800000000     0.523130000000     0.997370000000     0.837117   
Cu122    Cu     0.995670000000     0.967350000000     0.497370000000     0.832544   
Cu123    Cu     0.494990000000     0.773130000000     0.997360000000     0.837135   
Cu124    Cu     0.995490000000     0.717350000000     0.497360000000     0.836967   
Cu125    Cu     0.745420000000     0.523120000000     0.997380000000     0.837006   
Cu126    Cu     0.745050000000     0.967360000000     0.497380000000     0.835911   
Cu127    Cu     0.744990000000     0.773130000000     0.997370000000     0.837104   
Cu128    Cu     0.745490000000     0.717350000000     0.497370000000     0.840418   
H1       H      0.397690000000     0.293810000000     0.497360000000     0.0448077  
H2       H      0.397540000000     0.196540000000     0.997360000000     0.044414   
H3       H      0.342790000000     0.196660000000     0.997370000000     0.0442252  
H4       H      0.342940000000     0.293940000000     0.497360000000     0.0449604  
H5       H      0.092790000000     0.196660000000     0.497360000000     0.0454311  
H6       H      0.092940000000     0.293950000000     0.497360000000     0.0453065  
H7       H      0.147690000000     0.293820000000     0.497370000000     0.0446645  
H8       H      0.147540000000     0.196540000000     0.497360000000     0.0451645  
H9       H      0.397610000000     0.445880000000     0.498140000000     0.0448954  
H10      H      0.397610000000     0.043150000000     0.996580000000     0.0438588  
H11      H      0.342940000000     0.043210000000     0.996580000000     0.0439242  
H12      H      0.342780000000     0.445950000000     0.498150000000     0.0449504  
H13      H      0.092860000000     0.044600000000     0.498140000000     0.0452632  
H14      H      0.092870000000     0.447330000000     0.996580000000     0.0447062  
H15      H      0.147540000000     0.447270000000     0.996580000000     0.0443219  
H16      H      0.147700000000     0.044540000000     0.498150000000     0.0447844  
H17      H      0.210770000000     0.279440000000     0.150100000000     0.0419671  
H18      H      0.279710000000     0.211040000000     0.150100000000     0.0419682  
H19      H      0.279180000000     0.210510000000     0.094640000000     0.0425225  
H20      H      0.211300000000     0.279970000000     0.094640000000     0.0425544  
H21      H      0.279200000000     0.210540000000     0.400110000000     0.0418414  
H22      H      0.211280000000     0.279950000000     0.400110000000     0.0418366  
H23      H      0.210740000000     0.279410000000     0.344640000000     0.0418511  
H24      H      0.279740000000     0.211070000000     0.344640000000     0.0418521  
H25      H      0.210660000000     0.461140000000     0.150110000000     0.0420615  
H26      H      0.279810000000     0.029340000000     0.150110000000     0.0420196  
H27      H      0.279300000000     0.029850000000     0.094660000000     0.0427266  
H28      H      0.211180000000     0.460630000000     0.094660000000     0.0426838  
H29      H      0.210640000000     0.029310000000     0.344660000000     0.0420845  
H30      H      0.279840000000     0.461170000000     0.344660000000     0.0419637  
H31      H      0.279320000000     0.460650000000     0.400110000000     0.0419432  
H32      H      0.211160000000     0.029830000000     0.400110000000     0.0421559  
H33      H      0.197330000000     0.342870000000     0.248170000000     0.0447642  
H34      H      0.294600000000     0.342870000000     0.246610000000     0.045      
H35      H      0.294540000000     0.397700000000     0.246610000000     0.0449842  
H36      H      0.197270000000     0.397540000000     0.248180000000     0.0447761  
H37      H      0.195940000000     0.092780000000     0.246610000000     0.0456406  
H38      H      0.293210000000     0.092940000000     0.248180000000     0.0452236  
H39      H      0.293150000000     0.147610000000     0.248170000000     0.0447689  
H40      H      0.195880000000     0.147610000000     0.246610000000     0.0452442  
H41      H      0.029840000000     0.211170000000     0.150090000000     0.0422653  
H42      H      0.460640000000     0.279310000000     0.150090000000     0.0420498  
H43      H      0.461170000000     0.279840000000     0.094620000000     0.0426399  
H44      H      0.029310000000     0.210640000000     0.094620000000     0.0427586  
H45      H      0.029840000000     0.211170000000     0.344620000000     0.0419843  
H46      H      0.460630000000     0.279310000000     0.344620000000     0.0417606  
H47      H      0.461170000000     0.279840000000     0.400090000000     0.0417902  
H48      H      0.029310000000     0.210640000000     0.400090000000     0.0419025  
H49      H      0.029970000000     0.461300000000     0.150100000000     0.0419931  
H50      H      0.460510000000     0.029180000000     0.150100000000     0.0418824  
H51      H      0.461040000000     0.029720000000     0.094630000000     0.0425891  
H52      H      0.029440000000     0.460770000000     0.094630000000     0.0425279  
H53      H      0.029940000000     0.461280000000     0.344630000000     0.0418824  
H54      H      0.460540000000     0.029210000000     0.344630000000     0.0417949  
H55      H      0.461070000000     0.029740000000     0.400100000000     0.0418932  
H56      H      0.029410000000     0.460740000000     0.400100000000     0.0418105  
H57      H      0.446540000000     0.397540000000     0.247370000000     0.0450444  
H58      H      0.043820000000     0.397690000000     0.247360000000     0.0443331  
H59      H      0.043940000000     0.342940000000     0.247360000000     0.0445639  
H60      H      0.446660000000     0.342790000000     0.247360000000     0.0448572  
H61      H      0.043940000000     0.092940000000     0.247370000000     0.0453482  
H62      H      0.446660000000     0.092790000000     0.247360000000     0.0451429  
H63      H      0.446530000000     0.147540000000     0.247360000000     0.0449028  
H64      H      0.043810000000     0.147690000000     0.247360000000     0.0447139  
H65      H      0.397690000000     0.293820000000     0.997360000000     0.0443632  
H66      H      0.397540000000     0.196540000000     0.497360000000     0.0448345  
H67      H      0.342790000000     0.196660000000     0.497370000000     0.0446409  
H68      H      0.342940000000     0.293940000000     0.997360000000     0.0445556  
H69      H      0.092790000000     0.196660000000     0.997360000000     0.0450151  
H70      H      0.092940000000     0.293940000000     0.997360000000     0.0449101  
H71      H      0.147690000000     0.293820000000     0.997370000000     0.0442336  
H72      H      0.147540000000     0.196540000000     0.997360000000     0.044748   
H73      H      0.397610000000     0.445880000000     0.998140000000     0.0445029  
H74      H      0.397610000000     0.043150000000     0.496580000000     0.0442647  
H75      H      0.342940000000     0.043210000000     0.496580000000     0.04435    
H76      H      0.342780000000     0.445940000000     0.998150000000     0.0444923  
H77      H      0.092860000000     0.044600000000     0.998140000000     0.0448431  
H78      H      0.092870000000     0.447330000000     0.496580000000     0.0451393  
H79      H      0.147540000000     0.447270000000     0.496580000000     0.0447314  
H80      H      0.147700000000     0.044540000000     0.998150000000     0.0443638  
H81      H      0.210770000000     0.279440000000     0.650110000000     0.0417706  
H82      H      0.279710000000     0.211040000000     0.650110000000     0.0417517  
H83      H      0.279180000000     0.210510000000     0.594640000000     0.0417499  
H84      H      0.211300000000     0.279970000000     0.594640000000     0.0417589  
H85      H      0.279200000000     0.210540000000     0.900110000000     0.0418537  
H86      H      0.211280000000     0.279940000000     0.900110000000     0.0418613  
H87      H      0.210740000000     0.279420000000     0.844640000000     0.0418433  
H88      H      0.279740000000     0.211070000000     0.844640000000     0.0418639  
H89      H      0.210660000000     0.461140000000     0.650110000000     0.0418733  
H90      H      0.279810000000     0.029340000000     0.650110000000     0.0418157  
H91      H      0.279300000000     0.029850000000     0.594660000000     0.0419306  
H92      H      0.211180000000     0.460630000000     0.594660000000     0.0418804  
H93      H      0.210640000000     0.029310000000     0.844650000000     0.0421059  
H94      H      0.279840000000     0.461170000000     0.844650000000     0.0419923  
H95      H      0.279320000000     0.460650000000     0.900110000000     0.0419338  
H96      H      0.211160000000     0.029830000000     0.900110000000     0.042162   
H97      H      0.197330000000     0.342870000000     0.748170000000     0.0446896  
H98      H      0.294600000000     0.342860000000     0.746610000000     0.0449215  
H99      H      0.294540000000     0.397700000000     0.746610000000     0.0449462  
H100     H      0.197270000000     0.397540000000     0.748180000000     0.0447467  
H101     H      0.195940000000     0.092780000000     0.746610000000     0.0455739  
H102     H      0.293210000000     0.092940000000     0.748180000000     0.045181   
H103     H      0.293150000000     0.147610000000     0.748170000000     0.0447259  
H104     H      0.195880000000     0.147610000000     0.746610000000     0.0451936  
H105     H      0.029840000000     0.211170000000     0.650090000000     0.0420704  
H106     H      0.460640000000     0.279310000000     0.650090000000     0.0418533  
H107     H      0.461170000000     0.279840000000     0.594620000000     0.0418285  
H108     H      0.029310000000     0.210640000000     0.594620000000     0.0419504  
H109     H      0.029840000000     0.211170000000     0.844620000000     0.0419928  
H110     H      0.460640000000     0.279310000000     0.844620000000     0.0417836  
H111     H      0.461170000000     0.279840000000     0.900090000000     0.0417969  
H112     H      0.029310000000     0.210640000000     0.900090000000     0.0419136  
H113     H      0.029970000000     0.461300000000     0.650100000000     0.0418034  
H114     H      0.460510000000     0.029180000000     0.650100000000     0.0416905  
H115     H      0.461040000000     0.029720000000     0.594630000000     0.0417697  
H116     H      0.029440000000     0.460760000000     0.594630000000     0.0417068  
H117     H      0.029940000000     0.461270000000     0.844630000000     0.0418774  
H118     H      0.460540000000     0.029210000000     0.844630000000     0.0418082  
H119     H      0.461070000000     0.029740000000     0.900100000000     0.0418963  
H120     H      0.029410000000     0.460740000000     0.900100000000     0.0418204  
H121     H      0.446540000000     0.397540000000     0.747370000000     0.0449893  
H122     H      0.043820000000     0.397690000000     0.747360000000     0.0442946  
H123     H      0.043940000000     0.342940000000     0.747360000000     0.0445058  
H124     H      0.446660000000     0.342790000000     0.747360000000     0.0447899  
H125     H      0.043940000000     0.092940000000     0.747370000000     0.0453098  
H126     H      0.446660000000     0.092790000000     0.747360000000     0.0450993  
H127     H      0.446530000000     0.147540000000     0.747360000000     0.0448484  
H128     H      0.043810000000     0.147690000000     0.747360000000     0.0446522  
H129     H      0.397690000000     0.793820000000     0.497360000000     0.0447827  
H130     H      0.397540000000     0.696540000000     0.997360000000     0.0443624  
H131     H      0.342790000000     0.696660000000     0.997370000000     0.0441466  
H132     H      0.342940000000     0.793940000000     0.497360000000     0.0449658  
H133     H      0.092790000000     0.696660000000     0.497360000000     0.0453476  
H134     H      0.092940000000     0.793950000000     0.497360000000     0.0453082  
H135     H      0.147690000000     0.793820000000     0.497370000000     0.0446905  
H136     H      0.147540000000     0.696540000000     0.497360000000     0.0451025  
H137     H      0.397610000000     0.945880000000     0.498140000000     0.0447408  
H138     H      0.397610000000     0.543150000000     0.996580000000     0.0442027  
H139     H      0.342940000000     0.543210000000     0.996580000000     0.0442262  
H140     H      0.342780000000     0.945940000000     0.498150000000     0.0447796  
H141     H      0.092860000000     0.544600000000     0.498140000000     0.0455481  
H142     H      0.092870000000     0.947330000000     0.996580000000     0.0446056  
H143     H      0.147540000000     0.947270000000     0.996580000000     0.0441889  
H144     H      0.147700000000     0.544540000000     0.498150000000     0.0450452  
H145     H      0.210770000000     0.779440000000     0.150100000000     0.0419679  
H146     H      0.279710000000     0.711040000000     0.150100000000     0.041912   
H147     H      0.279180000000     0.710510000000     0.094640000000     0.0424736  
H148     H      0.211300000000     0.779970000000     0.094640000000     0.0425574  
H149     H      0.279200000000     0.710530000000     0.400110000000     0.0417715  
H150     H      0.211280000000     0.779950000000     0.400110000000     0.0418361  
H151     H      0.210740000000     0.779410000000     0.344640000000     0.0418505  
H152     H      0.279740000000     0.711070000000     0.344640000000     0.0417917  
H153     H      0.210660000000     0.961140000000     0.150110000000     0.0416019  
H154     H      0.279810000000     0.529340000000     0.150110000000     0.0420091  
H155     H      0.279300000000     0.529850000000     0.094660000000     0.0426403  
H156     H      0.211180000000     0.960630000000     0.094660000000     0.042548   
H157     H      0.210640000000     0.529310000000     0.344660000000     0.0420513  
H158     H      0.279840000000     0.961170000000     0.344660000000     0.041478   
H159     H      0.279320000000     0.960650000000     0.400110000000     0.0417808  
H160     H      0.211160000000     0.529830000000     0.400110000000     0.0420356  
H161     H      0.197330000000     0.842870000000     0.248170000000     0.0447517  
H162     H      0.294600000000     0.842870000000     0.246610000000     0.0449836  
H163     H      0.294540000000     0.897700000000     0.246610000000     0.0448875  
H164     H      0.197270000000     0.897540000000     0.248180000000     0.0447078  
H165     H      0.195940000000     0.592780000000     0.246610000000     0.0450901  
H166     H      0.293210000000     0.592940000000     0.248180000000     0.0447038  
H167     H      0.293150000000     0.647610000000     0.248170000000     0.0446961  
H168     H      0.195880000000     0.647610000000     0.246610000000     0.0451539  
H169     H      0.029840000000     0.711170000000     0.150090000000     0.0421965  
H170     H      0.460640000000     0.779310000000     0.150090000000     0.0420443  
H171     H      0.461170000000     0.779840000000     0.094620000000     0.0426364  
H172     H      0.029310000000     0.710640000000     0.094620000000     0.0426957  
H173     H      0.029840000000     0.711170000000     0.344620000000     0.0419198  
H174     H      0.460630000000     0.779310000000     0.344620000000     0.0417576  
H175     H      0.461170000000     0.779840000000     0.400090000000     0.0417891  
H176     H      0.029310000000     0.710640000000     0.400090000000     0.0418433  
H177     H      0.029970000000     0.961300000000     0.150100000000     0.0415361  
H178     H      0.460510000000     0.529180000000     0.150100000000     0.0418796  
H179     H      0.461040000000     0.529720000000     0.094630000000     0.0425001  
H180     H      0.029440000000     0.960770000000     0.094630000000     0.0423914  
H181     H      0.029940000000     0.961270000000     0.344630000000     0.0413899  
H182     H      0.460540000000     0.529210000000     0.344630000000     0.0417705  
H183     H      0.461070000000     0.529740000000     0.400100000000     0.0417787  
H184     H      0.029410000000     0.960740000000     0.400100000000     0.0416593  
H185     H      0.446540000000     0.897540000000     0.247370000000     0.0449343  
H186     H      0.043820000000     0.897690000000     0.247360000000     0.0442611  
H187     H      0.043940000000     0.842940000000     0.247360000000     0.0445712  
H188     H      0.446660000000     0.842790000000     0.247360000000     0.044844   
H189     H      0.043940000000     0.592940000000     0.247370000000     0.0447804  
H190     H      0.446660000000     0.592790000000     0.247360000000     0.0446375  
H191     H      0.446530000000     0.647540000000     0.247360000000     0.0448344  
H192     H      0.043810000000     0.647690000000     0.247360000000     0.0446228  
H193     H      0.397690000000     0.793810000000     0.997360000000     0.0443901  
H194     H      0.397540000000     0.696540000000     0.497360000000     0.044771   
H195     H      0.342790000000     0.696660000000     0.497370000000     0.044582   
H196     H      0.342940000000     0.793940000000     0.997360000000     0.0445299  
H197     H      0.092790000000     0.696670000000     0.997360000000     0.0449605  
H198     H      0.092940000000     0.793940000000     0.997360000000     0.0449215  
H199     H      0.147690000000     0.793820000000     0.997370000000     0.0442381  
H200     H      0.147540000000     0.696540000000     0.997360000000     0.0446645  
H201     H      0.397610000000     0.945880000000     0.998140000000     0.0443246  
H202     H      0.397610000000     0.543150000000     0.496580000000     0.0445932  
H203     H      0.342940000000     0.543210000000     0.496580000000     0.0446616  
H204     H      0.342780000000     0.945940000000     0.998150000000     0.0443521  
H205     H      0.092860000000     0.544600000000     0.998140000000     0.0450762  
H206     H      0.092870000000     0.947330000000     0.496580000000     0.0450174  
H207     H      0.147540000000     0.947270000000     0.496580000000     0.0446085  
H208     H      0.147700000000     0.544540000000     0.998150000000     0.0446428  
H209     H      0.210770000000     0.779440000000     0.650110000000     0.0417727  
H210     H      0.279710000000     0.711040000000     0.650110000000     0.0416951  
H211     H      0.279180000000     0.710510000000     0.594640000000     0.0417005  
H212     H      0.211300000000     0.779970000000     0.594640000000     0.0417631  
H213     H      0.279200000000     0.710540000000     0.900110000000     0.0417985  
H214     H      0.211280000000     0.779940000000     0.900110000000     0.0418587  
H215     H      0.210740000000     0.779410000000     0.844640000000     0.0418563  
H216     H      0.279740000000     0.711060000000     0.844640000000     0.041786   
H217     H      0.210660000000     0.961140000000     0.650110000000     0.0414018  
H218     H      0.279810000000     0.529340000000     0.650110000000     0.041826   
H219     H      0.279300000000     0.529850000000     0.594660000000     0.0418165  
H220     H      0.211180000000     0.960630000000     0.594660000000     0.041772   
H221     H      0.210640000000     0.529310000000     0.844650000000     0.0420782  
H222     H      0.279840000000     0.961170000000     0.844650000000     0.041501   
H223     H      0.279320000000     0.960650000000     0.900110000000     0.0417888  
H224     H      0.211160000000     0.529830000000     0.900110000000     0.0420256  
H225     H      0.197330000000     0.842870000000     0.748170000000     0.0446797  
H226     H      0.294600000000     0.842870000000     0.746610000000     0.0449018  
H227     H      0.294540000000     0.897700000000     0.746610000000     0.044841   
H228     H      0.197270000000     0.897540000000     0.748180000000     0.0446697  
H229     H      0.195940000000     0.592780000000     0.746610000000     0.0450294  
H230     H      0.293210000000     0.592940000000     0.748180000000     0.044673   
H231     H      0.293150000000     0.647610000000     0.748170000000     0.0446395  
H232     H      0.195880000000     0.647620000000     0.746610000000     0.0450892  
H233     H      0.029840000000     0.711170000000     0.650090000000     0.0420003  
H234     H      0.460640000000     0.779310000000     0.650090000000     0.0418476  
H235     H      0.461170000000     0.779840000000     0.594620000000     0.0418252  
H236     H      0.029310000000     0.710640000000     0.594620000000     0.0418867  
H237     H      0.029840000000     0.711170000000     0.844620000000     0.0419271  
H238     H      0.460640000000     0.779310000000     0.844620000000     0.0417801  
H239     H      0.461170000000     0.779840000000     0.900090000000     0.0417958  
H240     H      0.029310000000     0.710640000000     0.900090000000     0.0418542  
H241     H      0.029970000000     0.961300000000     0.650100000000     0.0413461  
H242     H      0.460510000000     0.529180000000     0.650100000000     0.0416883  
H243     H      0.461040000000     0.529720000000     0.594630000000     0.0416791  
H244     H      0.029440000000     0.960760000000     0.594630000000     0.0415715  
H245     H      0.029940000000     0.961270000000     0.844630000000     0.0414001  
H246     H      0.460540000000     0.529210000000     0.844630000000     0.0417825  
H247     H      0.461070000000     0.529740000000     0.900100000000     0.0417829  
H248     H      0.029410000000     0.960740000000     0.900100000000     0.0416653  
H249     H      0.446540000000     0.897540000000     0.747370000000     0.0448661  
H250     H      0.043820000000     0.897690000000     0.747360000000     0.0442157  
H251     H      0.043940000000     0.842940000000     0.747360000000     0.0445013  
H252     H      0.446660000000     0.842790000000     0.747360000000     0.044773   
H253     H      0.043940000000     0.592940000000     0.747370000000     0.0447466  
H254     H      0.446660000000     0.592790000000     0.747360000000     0.0446025  
H255     H      0.446530000000     0.647540000000     0.747360000000     0.044767   
H256     H      0.043810000000     0.647690000000     0.747360000000     0.0445474  
H257     H      0.897690000000     0.293810000000     0.497360000000     0.0447284  
H258     H      0.897540000000     0.196540000000     0.997360000000     0.0443058  
H259     H      0.842790000000     0.196660000000     0.997370000000     0.0442157  
H260     H      0.842940000000     0.293940000000     0.497360000000     0.0449425  
H261     H      0.592790000000     0.196660000000     0.497360000000     0.0449084  
H262     H      0.592940000000     0.293950000000     0.497360000000     0.0447457  
H263     H      0.647690000000     0.293820000000     0.497370000000     0.0445712  
H264     H      0.647540000000     0.196540000000     0.497360000000     0.0450794  
H265     H      0.897610000000     0.445880000000     0.498140000000     0.0447955  
H266     H      0.897610000000     0.043150000000     0.996580000000     0.043774   
H267     H      0.842940000000     0.043210000000     0.996580000000     0.0439156  
H268     H      0.842780000000     0.445950000000     0.498150000000     0.0449338  
H269     H      0.592860000000     0.044600000000     0.498140000000     0.0447056  
H270     H      0.592870000000     0.447330000000     0.996580000000     0.0441937  
H271     H      0.647540000000     0.447270000000     0.996580000000     0.044242   
H272     H      0.647700000000     0.044540000000     0.498150000000     0.0446871  
H273     H      0.710770000000     0.279440000000     0.150100000000     0.04191    
H274     H      0.779710000000     0.211040000000     0.150100000000     0.0419675  
H275     H      0.779180000000     0.210510000000     0.094640000000     0.0425203  
H276     H      0.711300000000     0.279970000000     0.094640000000     0.042493   
H277     H      0.779200000000     0.210540000000     0.400110000000     0.0418365  
H278     H      0.711270000000     0.279950000000     0.400110000000     0.0417553  
H279     H      0.710740000000     0.279410000000     0.344640000000     0.0417967  
H280     H      0.779740000000     0.211070000000     0.344640000000     0.0418535  
H281     H      0.710670000000     0.461140000000     0.150110000000     0.0420216  
H282     H      0.779810000000     0.029340000000     0.150110000000     0.0420212  
H283     H      0.779300000000     0.029850000000     0.094660000000     0.0427231  
H284     H      0.711180000000     0.460630000000     0.094660000000     0.0426312  
H285     H      0.710640000000     0.029310000000     0.344660000000     0.0420264  
H286     H      0.779840000000     0.461170000000     0.344660000000     0.0419632  
H287     H      0.779320000000     0.460650000000     0.400110000000     0.0419423  
H288     H      0.711160000000     0.029830000000     0.400110000000     0.0420915  
H289     H      0.697330000000     0.342870000000     0.248170000000     0.0446952  
H290     H      0.794600000000     0.342870000000     0.246610000000     0.0450044  
H291     H      0.794540000000     0.397700000000     0.246610000000     0.0449863  
H292     H      0.697270000000     0.397540000000     0.248180000000     0.0447109  
H293     H      0.695940000000     0.092780000000     0.246610000000     0.0455692  
H294     H      0.793210000000     0.092940000000     0.248180000000     0.0452273  
H295     H      0.793150000000     0.147610000000     0.248170000000     0.0447707  
H296     H      0.695880000000     0.147610000000     0.246610000000     0.0451762  
H297     H      0.529840000000     0.211170000000     0.150090000000     0.0421501  
H298     H      0.960640000000     0.279310000000     0.150090000000     0.0418923  
H299     H      0.961170000000     0.279840000000     0.094620000000     0.0421605  
H300     H      0.529310000000     0.210640000000     0.094620000000     0.0427348  
H301     H      0.529840000000     0.211170000000     0.344620000000     0.041866   
H302     H      0.960640000000     0.279310000000     0.344620000000     0.0416158  
H303     H      0.961170000000     0.279840000000     0.400090000000     0.0413058  
H304     H      0.529310000000     0.210640000000     0.400090000000     0.0418765  
H305     H      0.529970000000     0.461300000000     0.150100000000     0.0418756  
H306     H      0.960510000000     0.029180000000     0.150100000000     0.0417271  
H307     H      0.961040000000     0.029720000000     0.094630000000     0.0421021  
H308     H      0.529430000000     0.460770000000     0.094630000000     0.0425185  
H309     H      0.529940000000     0.461280000000     0.344630000000     0.0417684  
H310     H      0.960540000000     0.029210000000     0.344630000000     0.0416376  
H311     H      0.961070000000     0.029740000000     0.400100000000     0.0414151  
H312     H      0.529410000000     0.460740000000     0.400100000000     0.0417819  
H313     H      0.946540000000     0.397540000000     0.247370000000     0.0448946  
H314     H      0.543820000000     0.397690000000     0.247360000000     0.0446486  
H315     H      0.543940000000     0.342940000000     0.247360000000     0.0448351  
H316     H      0.946660000000     0.342790000000     0.247360000000     0.0447323  
H317     H      0.543940000000     0.092940000000     0.247370000000     0.0456443  
H318     H      0.946660000000     0.092790000000     0.247360000000     0.0449992  
H319     H      0.946540000000     0.147540000000     0.247360000000     0.044779   
H320     H      0.543810000000     0.147690000000     0.247360000000     0.0450176  
H321     H      0.897690000000     0.293820000000     0.997360000000     0.0442796  
H322     H      0.897540000000     0.196540000000     0.497360000000     0.0447352  
H323     H      0.842790000000     0.196660000000     0.497370000000     0.0446239  
H324     H      0.842940000000     0.293940000000     0.997360000000     0.0445524  
H325     H      0.592790000000     0.196660000000     0.997360000000     0.0445039  
H326     H      0.592940000000     0.293940000000     0.997360000000     0.0443608  
H327     H      0.647690000000     0.293820000000     0.997370000000     0.0441366  
H328     H      0.647540000000     0.196540000000     0.997360000000     0.0446581  
H329     H      0.897610000000     0.445880000000     0.998140000000     0.0443968  
H330     H      0.897610000000     0.043150000000     0.496580000000     0.0441937  
H331     H      0.842940000000     0.043210000000     0.496580000000     0.0443379  
H332     H      0.842780000000     0.445940000000     0.998150000000     0.0444821  
H333     H      0.592860000000     0.044600000000     0.998140000000     0.0442916  
H334     H      0.592870000000     0.447330000000     0.496580000000     0.0446192  
H335     H      0.647540000000     0.447270000000     0.496580000000     0.0446499  
H336     H      0.647700000000     0.044540000000     0.998150000000     0.0442612  
H337     H      0.710770000000     0.279440000000     0.650110000000     0.0417187  
H338     H      0.779710000000     0.211040000000     0.650110000000     0.041778   
H339     H      0.779180000000     0.210510000000     0.594640000000     0.0417148  
H340     H      0.711300000000     0.279970000000     0.594640000000     0.0416862  
H341     H      0.779200000000     0.210540000000     0.900110000000     0.0418487  
H342     H      0.711270000000     0.279940000000     0.900110000000     0.0417813  
H343     H      0.710740000000     0.279420000000     0.844640000000     0.0417867  
H344     H      0.779740000000     0.211070000000     0.844640000000     0.0418609  
H345     H      0.710660000000     0.461140000000     0.650110000000     0.0418197  
H346     H      0.779810000000     0.029340000000     0.650110000000     0.0418162  
H347     H      0.779300000000     0.029850000000     0.594660000000     0.0419297  
H348     H      0.711180000000     0.460630000000     0.594660000000     0.0418194  
H349     H      0.710640000000     0.029310000000     0.844650000000     0.0420318  
H350     H      0.779840000000     0.461170000000     0.844650000000     0.0419746  
H351     H      0.779320000000     0.460650000000     0.900110000000     0.0419367  
H352     H      0.711160000000     0.029830000000     0.900110000000     0.0421046  
H353     H      0.697330000000     0.342870000000     0.748170000000     0.0446391  
H354     H      0.794600000000     0.342860000000     0.746610000000     0.0449709  
H355     H      0.794540000000     0.397700000000     0.746610000000     0.0449296  
H356     H      0.697270000000     0.397540000000     0.748180000000     0.0446689  
H357     H      0.695940000000     0.092780000000     0.746610000000     0.0455093  
H358     H      0.793210000000     0.092940000000     0.748180000000     0.045177   
H359     H      0.793150000000     0.147610000000     0.748170000000     0.0447253  
H360     H      0.695880000000     0.147610000000     0.746610000000     0.0451202  
H361     H      0.529840000000     0.211170000000     0.650090000000     0.041953   
H362     H      0.960640000000     0.279310000000     0.650090000000     0.0416954  
H363     H      0.961170000000     0.279840000000     0.594620000000     0.0413471  
H364     H      0.529310000000     0.210640000000     0.594620000000     0.0419231  
H365     H      0.529840000000     0.211170000000     0.844620000000     0.0418771  
H366     H      0.960630000000     0.279310000000     0.844620000000     0.0416129  
H367     H      0.961170000000     0.279840000000     0.900090000000     0.0413187  
H368     H      0.529310000000     0.210640000000     0.900090000000     0.0418855  
H369     H      0.529970000000     0.461300000000     0.650100000000     0.0416891  
H370     H      0.960510000000     0.029180000000     0.650100000000     0.0415348  
H371     H      0.961040000000     0.029720000000     0.594630000000     0.0412983  
H372     H      0.529440000000     0.460760000000     0.594630000000     0.0416793  
H373     H      0.529940000000     0.461270000000     0.844630000000     0.0417834  
H374     H      0.960540000000     0.029210000000     0.844630000000     0.0416472  
H375     H      0.961070000000     0.029740000000     0.900100000000     0.0414193  
H376     H      0.529410000000     0.460740000000     0.900100000000     0.0417833  
H377     H      0.946540000000     0.397540000000     0.747370000000     0.0448517  
H378     H      0.543820000000     0.397690000000     0.747360000000     0.044602   
H379     H      0.543940000000     0.342940000000     0.747360000000     0.0447643  
H380     H      0.946660000000     0.342790000000     0.747360000000     0.0446724  
H381     H      0.543940000000     0.092940000000     0.747370000000     0.0455818  
H382     H      0.946660000000     0.092790000000     0.747360000000     0.0449733  
H383     H      0.946530000000     0.147540000000     0.747360000000     0.0446973  
H384     H      0.543810000000     0.147690000000     0.747360000000     0.044968   
H385     H      0.897690000000     0.793820000000     0.497360000000     0.0447035  
H386     H      0.897540000000     0.696540000000     0.997360000000     0.0442542  
H387     H      0.842790000000     0.696660000000     0.997370000000     0.0441371  
H388     H      0.842940000000     0.793940000000     0.497360000000     0.0449479  
H389     H      0.592790000000     0.696660000000     0.497360000000     0.044824   
H390     H      0.592940000000     0.793950000000     0.497360000000     0.0447474  
H391     H      0.647690000000     0.793820000000     0.497370000000     0.0445973  
H392     H      0.647540000000     0.696540000000     0.497360000000     0.0450171  
H393     H      0.897610000000     0.945880000000     0.498140000000     0.0446412  
H394     H      0.897610000000     0.543150000000     0.996580000000     0.0441172  
H395     H      0.842940000000     0.543210000000     0.996580000000     0.0442165  
H396     H      0.842780000000     0.945940000000     0.498150000000     0.0447631  
H397     H      0.592860000000     0.544600000000     0.498140000000     0.0449897  
H398     H      0.592870000000     0.947330000000     0.996580000000     0.0440936  
H399     H      0.647540000000     0.947270000000     0.996580000000     0.0441087  
H400     H      0.647700000000     0.544540000000     0.498150000000     0.0449479  
H401     H      0.710770000000     0.779440000000     0.150100000000     0.0419108  
H402     H      0.779710000000     0.711040000000     0.150100000000     0.0419112  
H403     H      0.779180000000     0.710510000000     0.094640000000     0.0424714  
H404     H      0.711300000000     0.779970000000     0.094640000000     0.0424961  
H405     H      0.779200000000     0.710530000000     0.400110000000     0.0417667  
H406     H      0.711270000000     0.779950000000     0.400110000000     0.0417547  
H407     H      0.710740000000     0.779410000000     0.344640000000     0.0417961  
H408     H      0.779740000000     0.711070000000     0.344640000000     0.0417931  
H409     H      0.710670000000     0.961140000000     0.150110000000     0.0415617  
H410     H      0.779810000000     0.529340000000     0.150110000000     0.042011   
H411     H      0.779300000000     0.529850000000     0.094660000000     0.0426368  
H412     H      0.711180000000     0.960630000000     0.094660000000     0.0424954  
H413     H      0.710640000000     0.529310000000     0.344660000000     0.0419924  
H414     H      0.779840000000     0.961170000000     0.344660000000     0.0414776  
H415     H      0.779320000000     0.960650000000     0.400110000000     0.0417801  
H416     H      0.711160000000     0.529830000000     0.400110000000     0.0419705  
H417     H      0.697330000000     0.842870000000     0.248170000000     0.0446828  
H418     H      0.794600000000     0.842870000000     0.246610000000     0.044988   
H419     H      0.794540000000     0.897700000000     0.246610000000     0.0448897  
H420     H      0.697270000000     0.897540000000     0.248180000000     0.0446426  
H421     H      0.695940000000     0.592780000000     0.246610000000     0.0450178  
H422     H      0.793210000000     0.592940000000     0.248180000000     0.0447074  
H423     H      0.793150000000     0.647610000000     0.248170000000     0.044698   
H424     H      0.695880000000     0.647610000000     0.246610000000     0.0450855  
H425     H      0.529840000000     0.711170000000     0.150090000000     0.0420805  
H426     H      0.960640000000     0.779310000000     0.150090000000     0.041887   
H427     H      0.961170000000     0.779840000000     0.094620000000     0.0421571  
H428     H      0.529310000000     0.710640000000     0.094620000000     0.042671   
H429     H      0.529840000000     0.711170000000     0.344620000000     0.0418007  
H430     H      0.960640000000     0.779310000000     0.344620000000     0.0416129  
H431     H      0.961170000000     0.779840000000     0.400090000000     0.0413047  
H432     H      0.529310000000     0.710640000000     0.400090000000     0.0418165  
H433     H      0.529970000000     0.961300000000     0.150100000000     0.0414176  
H434     H      0.960510000000     0.529180000000     0.150100000000     0.0417236  
H435     H      0.961040000000     0.529720000000     0.094630000000     0.042012   
H436     H      0.529430000000     0.960770000000     0.094630000000     0.0423815  
H437     H      0.529940000000     0.961270000000     0.344630000000     0.0412742  
H438     H      0.960540000000     0.529210000000     0.344630000000     0.0416125  
H439     H      0.961070000000     0.529740000000     0.400100000000     0.0412996  
H440     H      0.529410000000     0.960740000000     0.400100000000     0.0416301  
H441     H      0.946540000000     0.897540000000     0.247370000000     0.0447846  
H442     H      0.543820000000     0.897690000000     0.247360000000     0.0445761  
H443     H      0.543940000000     0.842940000000     0.247360000000     0.0448425  
H444     H      0.946660000000     0.842790000000     0.247360000000     0.0447192  
H445     H      0.543940000000     0.592940000000     0.247370000000     0.0450758  
H446     H      0.946660000000     0.592790000000     0.247360000000     0.0444946  
H447     H      0.946540000000     0.647540000000     0.247360000000     0.0447103  
H448     H      0.543810000000     0.647690000000     0.247360000000     0.0449265  
H449     H      0.897690000000     0.793810000000     0.997360000000     0.0443066  
H450     H      0.897540000000     0.696540000000     0.497360000000     0.0446717  
H451     H      0.842790000000     0.696660000000     0.497370000000     0.0445649  
H452     H      0.842940000000     0.793940000000     0.997360000000     0.0445266  
H453     H      0.592790000000     0.696670000000     0.997360000000     0.0444484  
H454     H      0.592940000000     0.793940000000     0.997360000000     0.0443722  
H455     H      0.647690000000     0.793820000000     0.997370000000     0.0441412  
H456     H      0.647540000000     0.696540000000     0.997360000000     0.0445744  
H457     H      0.897610000000     0.945880000000     0.998140000000     0.0442189  
H458     H      0.897610000000     0.543150000000     0.496580000000     0.0445219  
H459     H      0.842940000000     0.543210000000     0.496580000000     0.0446495  
H460     H      0.842780000000     0.945940000000     0.998150000000     0.0443416  
H461     H      0.592860000000     0.544600000000     0.998140000000     0.0445238  
H462     H      0.592870000000     0.947330000000     0.496580000000     0.0444978  
H463     H      0.647540000000     0.947270000000     0.496580000000     0.0445268  
H464     H      0.647700000000     0.544540000000     0.998150000000     0.0445402  
H465     H      0.710770000000     0.779440000000     0.650110000000     0.0417209  
H466     H      0.779710000000     0.711040000000     0.650110000000     0.0417214  
H467     H      0.779180000000     0.710510000000     0.594640000000     0.0416654  
H468     H      0.711300000000     0.779970000000     0.594640000000     0.0416905  
H469     H      0.779200000000     0.710540000000     0.900110000000     0.0417934  
H470     H      0.711270000000     0.779940000000     0.900110000000     0.0417787  
H471     H      0.710740000000     0.779410000000     0.844640000000     0.0417997  
H472     H      0.779740000000     0.711060000000     0.844640000000     0.041783   
H473     H      0.710660000000     0.961140000000     0.650110000000     0.041348   
H474     H      0.779810000000     0.529340000000     0.650110000000     0.0418267  
H475     H      0.779300000000     0.529850000000     0.594660000000     0.0418157  
H476     H      0.711180000000     0.960630000000     0.594660000000     0.0417109  
H477     H      0.710640000000     0.529310000000     0.844650000000     0.0420034  
H478     H      0.779840000000     0.961170000000     0.844650000000     0.0414834  
H479     H      0.779320000000     0.960650000000     0.900110000000     0.0417919  
H480     H      0.711160000000     0.529830000000     0.900110000000     0.0419675  
H481     H      0.697330000000     0.842870000000     0.748170000000     0.0446292  
H482     H      0.794600000000     0.842870000000     0.746610000000     0.0449512  
H483     H      0.794540000000     0.897700000000     0.746610000000     0.0448246  
H484     H      0.697270000000     0.897540000000     0.748180000000     0.0445919  
H485     H      0.695940000000     0.592780000000     0.746610000000     0.044964   
H486     H      0.793210000000     0.592940000000     0.748180000000     0.0446689  
H487     H      0.793150000000     0.647610000000     0.748170000000     0.044639   
H488     H      0.695880000000     0.647620000000     0.746610000000     0.0450154  
H489     H      0.529840000000     0.711170000000     0.650090000000     0.0418822  
H490     H      0.960640000000     0.779310000000     0.650090000000     0.0416898  
H491     H      0.961170000000     0.779840000000     0.594620000000     0.0413439  
H492     H      0.529310000000     0.710640000000     0.594620000000     0.0418586  
H493     H      0.529840000000     0.711170000000     0.844620000000     0.0418108  
H494     H      0.960630000000     0.779310000000     0.844620000000     0.0416096  
H495     H      0.961170000000     0.779840000000     0.900090000000     0.0413176  
H496     H      0.529310000000     0.710640000000     0.900090000000     0.0418253  
H497     H      0.529970000000     0.961300000000     0.650100000000     0.0412306  
H498     H      0.960510000000     0.529180000000     0.650100000000     0.0415319  
H499     H      0.961040000000     0.529720000000     0.594630000000     0.0412068  
H500     H      0.529440000000     0.960760000000     0.594630000000     0.0415434  
H501     H      0.529940000000     0.961270000000     0.844630000000     0.0413052  
H502     H      0.960540000000     0.529210000000     0.844630000000     0.0416208  
H503     H      0.961070000000     0.529740000000     0.900100000000     0.0413048  
H504     H      0.529410000000     0.960740000000     0.900100000000     0.0416274  
H505     H      0.946540000000     0.897540000000     0.747370000000     0.044729   
H506     H      0.543820000000     0.897690000000     0.747360000000     0.0445225  
H507     H      0.543940000000     0.842940000000     0.747360000000     0.0447598  
H508     H      0.946660000000     0.842790000000     0.747360000000     0.0446552  
H509     H      0.543940000000     0.592940000000     0.747370000000     0.0450179  
H510     H      0.946660000000     0.592790000000     0.747360000000     0.0444769  
H511     H      0.946530000000     0.647540000000     0.747360000000     0.0446157  
H512     H      0.543810000000     0.647690000000     0.747360000000     0.0448632  
O1       O      0.470160000000     0.040980000000     0.247370000000    -0.381332   
O2       O      0.470040000000     0.449750000000     0.247370000000    -0.382048   
O3       O      0.470070000000     0.495750000000     0.293180000000    -0.382259   
O4       O      0.470070000000     0.995750000000     0.201550000000    -0.383181   
O5       O      0.020410000000     0.994730000000     0.201550000000    -0.379192   
O6       O      0.020410000000     0.494730000000     0.293180000000    -0.378633   
O7       O      0.020310000000     0.449500000000     0.247370000000    -0.380971   
O8       O      0.020430000000     0.040740000000     0.247370000000    -0.375441   
O9       O      0.470040000000     0.199750000000     0.247360000000    -0.382114   
O10      O      0.470170000000     0.290980000000     0.247360000000    -0.384375   
O11      O      0.470070000000     0.245750000000     0.201540000000    -0.382013   
O12      O      0.470070000000     0.245750000000     0.293170000000    -0.382137   
O13      O      0.020410000000     0.244730000000     0.293170000000    -0.378526   
O14      O      0.020410000000     0.244730000000     0.201540000000    -0.378402   
O15      O      0.020440000000     0.290730000000     0.247360000000    -0.378558   
O16      O      0.020310000000     0.199500000000     0.247360000000    -0.380828   
O17      O      0.219720000000     0.040690000000     0.246530000000    -0.379654   
O18      O      0.220520000000     0.449480000000     0.248250000000    -0.383481   
O19      O      0.220080000000     0.496210000000     0.293190000000    -0.382054   
O20      O      0.220100000000     0.993950000000     0.201590000000    -0.382756   
O21      O      0.270380000000     0.996540000000     0.201590000000    -0.383247   
O22      O      0.270390000000     0.494270000000     0.293190000000    -0.382195   
O23      O      0.270760000000     0.449790000000     0.246530000000    -0.38283    
O24      O      0.269960000000     0.041000000000     0.248250000000    -0.380398   
O25      O      0.219640000000     0.199900000000     0.247350000000    -0.381788   
O26      O      0.220570000000     0.291140000000     0.247390000000    -0.384519   
O27      O      0.220070000000     0.245930000000     0.201560000000    -0.381843   
O28      O      0.220070000000     0.245900000000     0.293190000000    -0.382012   
O29      O      0.270410000000     0.244580000000     0.293190000000    -0.38208    
O30      O      0.270410000000     0.244550000000     0.201560000000    -0.381915   
O31      O      0.270840000000     0.290580000000     0.247350000000    -0.381854   
O32      O      0.269910000000     0.199350000000     0.247390000000    -0.384446   
O33      O      0.449350000000     0.019910000000     0.497340000000    -0.38121    
O34      O      0.040580000000     0.020840000000     0.497390000000    -0.375297   
O35      O      0.994580000000     0.020410000000     0.451550000000    -0.37924    
O36      O      0.494540000000     0.020410000000     0.043180000000    -0.375164   
O37      O      0.495930000000     0.470070000000     0.043180000000    -0.378765   
O38      O      0.995900000000     0.470070000000     0.451550000000    -0.383215   
O39      O      0.041130000000     0.470570000000     0.997350000000    -0.381878   
O40      O      0.449900000000     0.469640000000     0.997390000000    -0.382155   
O41      O      0.449500000000     0.270310000000     0.497360000000    -0.384406   
O42      O      0.040730000000     0.270440000000     0.497360000000    -0.379159   
O43      O      0.994730000000     0.270410000000     0.451540000000    -0.382943   
O44      O      0.494730000000     0.270410000000     0.043170000000    -0.378777   
O45      O      0.495750000000     0.220070000000     0.043170000000    -0.378717   
O46      O      0.995750000000     0.220070000000     0.451540000000    -0.383236   
O47      O      0.040980000000     0.220170000000     0.997360000000    -0.381659   
O48      O      0.449740000000     0.220040000000     0.997360000000    -0.382414   
O49      O      0.199780000000     0.020760000000     0.498230000000    -0.3793     
O50      O      0.291000000000     0.019960000000     0.496520000000    -0.379893   
O51      O      0.244270000000     0.020400000000     0.451580000000    -0.378402   
O52      O      0.246530000000     0.020380000000     0.043180000000    -0.3752     
O53      O      0.243950000000     0.470100000000     0.043180000000    -0.378826   
O54      O      0.246210000000     0.470080000000     0.451580000000    -0.382021   
O55      O      0.290690000000     0.469720000000     0.998230000000    -0.383171   
O56      O      0.199480000000     0.470520000000     0.996520000000    -0.383802   
O57      O      0.199500000000     0.270310000000     0.497370000000    -0.384537   
O58      O      0.290740000000     0.270430000000     0.497370000000    -0.382311   
O59      O      0.244730000000     0.270410000000     0.451550000000    -0.382146   
O60      O      0.244730000000     0.270410000000     0.043190000000    -0.378755   
O61      O      0.245750000000     0.220070000000     0.043190000000    -0.378686   
O62      O      0.245750000000     0.220070000000     0.451550000000    -0.38209    
O63      O      0.290980000000     0.220170000000     0.997370000000    -0.384744   
O64      O      0.199740000000     0.220050000000     0.997370000000    -0.382389   
O65      O      0.470160000000     0.040980000000     0.747370000000    -0.381383   
O66      O      0.470050000000     0.449750000000     0.747370000000    -0.382323   
O67      O      0.470070000000     0.495750000000     0.793180000000    -0.382238   
O68      O      0.470070000000     0.995750000000     0.701550000000    -0.383297   
O69      O      0.020410000000     0.994730000000     0.701550000000    -0.379279   
O70      O      0.020410000000     0.494730000000     0.793180000000    -0.378604   
O71      O      0.020310000000     0.449500000000     0.747370000000    -0.381074   
O72      O      0.020430000000     0.040740000000     0.747370000000    -0.375401   
O73      O      0.470040000000     0.199750000000     0.747360000000    -0.382149   
O74      O      0.470170000000     0.290980000000     0.747360000000    -0.384464   
O75      O      0.470070000000     0.245750000000     0.701540000000    -0.382115   
O76      O      0.470070000000     0.245750000000     0.793170000000    -0.382113   
O77      O      0.020410000000     0.244730000000     0.793170000000    -0.378498   
O78      O      0.020410000000     0.244730000000     0.701540000000    -0.378492   
O79      O      0.020440000000     0.290730000000     0.747360000000    -0.378583   
O80      O      0.020310000000     0.199500000000     0.747360000000    -0.380851   
O81      O      0.219720000000     0.040690000000     0.746530000000    -0.379781   
O82      O      0.220520000000     0.449480000000     0.748250000000    -0.383401   
O83      O      0.220080000000     0.496210000000     0.793190000000    -0.381972   
O84      O      0.220100000000     0.993950000000     0.701590000000    -0.382855   
O85      O      0.270380000000     0.996530000000     0.701590000000    -0.383353   
O86      O      0.270400000000     0.494270000000     0.793190000000    -0.382007   
O87      O      0.270760000000     0.449790000000     0.746530000000    -0.382901   
O88      O      0.269960000000     0.041000000000     0.748250000000    -0.380443   
O89      O      0.219640000000     0.199900000000     0.747350000000    -0.381725   
O90      O      0.220570000000     0.291130000000     0.747390000000    -0.384624   
O91      O      0.220070000000     0.245930000000     0.701550000000    -0.382036   
O92      O      0.220070000000     0.245900000000     0.793190000000    -0.381967   
O93      O      0.270410000000     0.244580000000     0.793190000000    -0.38202    
O94      O      0.270410000000     0.244550000000     0.701550000000    -0.382094   
O95      O      0.270830000000     0.290580000000     0.747350000000    -0.382082   
O96      O      0.269910000000     0.199350000000     0.747390000000    -0.384438   
O97      O      0.449350000000     0.019910000000     0.997350000000    -0.381574   
O98      O      0.040580000000     0.020840000000     0.997390000000    -0.375498   
O99      O      0.994580000000     0.020410000000     0.951550000000    -0.378733   
O100     O      0.494550000000     0.020410000000     0.543180000000    -0.378531   
O101     O      0.495930000000     0.470070000000     0.543180000000    -0.382155   
O102     O      0.995900000000     0.470070000000     0.951550000000    -0.382683   
O103     O      0.041130000000     0.470570000000     0.497340000000    -0.381555   
O104     O      0.449900000000     0.469650000000     0.497390000000    -0.382119   
O105     O      0.449500000000     0.270310000000     0.997360000000    -0.384722   
O106     O      0.040730000000     0.270440000000     0.997360000000    -0.379432   
O107     O      0.994730000000     0.270410000000     0.951540000000    -0.382402   
O108     O      0.494730000000     0.270410000000     0.543170000000    -0.382142   
O109     O      0.495750000000     0.220070000000     0.543170000000    -0.382094   
O110     O      0.995750000000     0.220070000000     0.951540000000    -0.382696   
O111     O      0.040980000000     0.220170000000     0.497360000000    -0.381382   
O112     O      0.449750000000     0.220040000000     0.497360000000    -0.382163   
O113     O      0.199780000000     0.020760000000     0.998230000000    -0.379619   
O114     O      0.291000000000     0.019960000000     0.996520000000    -0.380164   
O115     O      0.244270000000     0.020400000000     0.951580000000    -0.377869   
O116     O      0.246530000000     0.020380000000     0.543180000000    -0.37854    
O117     O      0.243950000000     0.470100000000     0.543180000000    -0.382183   
O118     O      0.246210000000     0.470090000000     0.951580000000    -0.381636   
O119     O      0.290690000000     0.469720000000     0.498230000000    -0.38294    
O120     O      0.199480000000     0.470520000000     0.496520000000    -0.383448   
O121     O      0.199500000000     0.270310000000     0.997370000000    -0.384835   
O122     O      0.290730000000     0.270440000000     0.997370000000    -0.382369   
O123     O      0.244730000000     0.270410000000     0.951550000000    -0.381611   
O124     O      0.244730000000     0.270410000000     0.543190000000    -0.382104   
O125     O      0.245750000000     0.220070000000     0.543190000000    -0.382044   
O126     O      0.245750000000     0.220070000000     0.951550000000    -0.381544   
O127     O      0.290980000000     0.220170000000     0.497370000000    -0.384646   
O128     O      0.199740000000     0.220050000000     0.497370000000    -0.382118   
O129     O      0.470160000000     0.540980000000     0.247370000000    -0.384408   
O130     O      0.470040000000     0.949740000000     0.247370000000    -0.38157    
O131     O      0.470070000000     0.995750000000     0.293180000000    -0.383388   
O132     O      0.470070000000     0.495750000000     0.201550000000    -0.382036   
O133     O      0.020410000000     0.494730000000     0.201550000000    -0.378411   
O134     O      0.020410000000     0.994730000000     0.293180000000    -0.379433   
O135     O      0.020310000000     0.949500000000     0.247370000000    -0.38051    
O136     O      0.020430000000     0.540740000000     0.247370000000    -0.378555   
O137     O      0.470040000000     0.699750000000     0.247360000000    -0.382232   
O138     O      0.470170000000     0.790980000000     0.247360000000    -0.384491   
O139     O      0.470070000000     0.745750000000     0.201540000000    -0.382027   
O140     O      0.470070000000     0.745750000000     0.293170000000    -0.382152   
O141     O      0.020410000000     0.744730000000     0.293170000000    -0.378522   
O142     O      0.020410000000     0.744730000000     0.201540000000    -0.378398   
O143     O      0.020440000000     0.790740000000     0.247360000000    -0.378606   
O144     O      0.020310000000     0.699500000000     0.247360000000    -0.380928   
O145     O      0.219720000000     0.540690000000     0.246530000000    -0.382759   
O146     O      0.220520000000     0.949480000000     0.248250000000    -0.382982   
O147     O      0.220080000000     0.996210000000     0.293190000000    -0.383215   
O148     O      0.220100000000     0.493950000000     0.201590000000    -0.382016   
O149     O      0.270380000000     0.496530000000     0.201590000000    -0.382067   
O150     O      0.270390000000     0.994270000000     0.293190000000    -0.382966   
O151     O      0.270760000000     0.949790000000     0.246530000000    -0.382357   
O152     O      0.269960000000     0.541000000000     0.248250000000    -0.383493   
O153     O      0.219640000000     0.699900000000     0.247350000000    -0.381936   
O154     O      0.220570000000     0.791130000000     0.247390000000    -0.384634   
O155     O      0.220070000000     0.745930000000     0.201560000000    -0.381871   
O156     O      0.220070000000     0.745900000000     0.293190000000    -0.382037   
O157     O      0.270410000000     0.744580000000     0.293190000000    -0.382087   
O158     O      0.270410000000     0.744550000000     0.201560000000    -0.381922   
O159     O      0.270840000000     0.790580000000     0.247350000000    -0.38191    
O160     O      0.269910000000     0.699350000000     0.247390000000    -0.384566   
O161     O      0.449350000000     0.519910000000     0.497340000000    -0.384689   
O162     O      0.040580000000     0.520840000000     0.497390000000    -0.378888   
O163     O      0.994580000000     0.520410000000     0.451550000000    -0.382845   
O164     O      0.494540000000     0.520410000000     0.043180000000    -0.378759   
O165     O      0.495930000000     0.970070000000     0.043180000000    -0.377851   
O166     O      0.995900000000     0.970070000000     0.451550000000    -0.382289   
O167     O      0.041130000000     0.970570000000     0.997350000000    -0.380884   
O168     O      0.449900000000     0.969650000000     0.997390000000    -0.38146    
O169     O      0.449500000000     0.770310000000     0.497360000000    -0.384405   
O170     O      0.040730000000     0.770440000000     0.497360000000    -0.379152   
O171     O      0.994730000000     0.770410000000     0.451540000000    -0.382937   
O172     O      0.494730000000     0.770410000000     0.043170000000    -0.37877    
O173     O      0.495750000000     0.720070000000     0.043170000000    -0.378748   
O174     O      0.995750000000     0.720070000000     0.451540000000    -0.383271   
O175     O      0.040980000000     0.720170000000     0.997360000000    -0.381685   
O176     O      0.449740000000     0.720040000000     0.997360000000    -0.382434   
O177     O      0.199780000000     0.520760000000     0.498230000000    -0.382856   
O178     O      0.291000000000     0.519960000000     0.496520000000    -0.383433   
O179     O      0.244270000000     0.520400000000     0.451580000000    -0.382005   
O180     O      0.246530000000     0.520380000000     0.043180000000    -0.378791   
O181     O      0.243950000000     0.970100000000     0.043180000000    -0.377902   
O182     O      0.246210000000     0.970080000000     0.451580000000    -0.381095   
O183     O      0.290690000000     0.969720000000     0.998230000000    -0.38228    
O184     O      0.199480000000     0.970520000000     0.996520000000    -0.382903   
O185     O      0.199500000000     0.770320000000     0.497370000000    -0.384376   
O186     O      0.290740000000     0.770430000000     0.497370000000    -0.382299   
O187     O      0.244730000000     0.770410000000     0.451550000000    -0.382138   
O188     O      0.244730000000     0.770410000000     0.043190000000    -0.378751   
O189     O      0.245750000000     0.720070000000     0.043190000000    -0.37872    
O190     O      0.245750000000     0.720070000000     0.451550000000    -0.382124   
O191     O      0.290980000000     0.720170000000     0.997370000000    -0.384829   
O192     O      0.199740000000     0.720050000000     0.997370000000    -0.382427   
O193     O      0.470160000000     0.540980000000     0.747370000000    -0.38444    
O194     O      0.470050000000     0.949750000000     0.747370000000    -0.381781   
O195     O      0.470070000000     0.995750000000     0.793180000000    -0.383376   
O196     O      0.470070000000     0.495750000000     0.701550000000    -0.38214    
O197     O      0.020410000000     0.494730000000     0.701550000000    -0.3785     
O198     O      0.020410000000     0.994730000000     0.793180000000    -0.379401   
O199     O      0.020310000000     0.949500000000     0.747370000000    -0.380492   
O200     O      0.020430000000     0.540740000000     0.747370000000    -0.378515   
O201     O      0.470040000000     0.699750000000     0.747360000000    -0.382177   
O202     O      0.470170000000     0.790980000000     0.747360000000    -0.384456   
O203     O      0.470070000000     0.745750000000     0.701540000000    -0.382127   
O204     O      0.470070000000     0.745750000000     0.793170000000    -0.382125   
O205     O      0.020410000000     0.744730000000     0.793170000000    -0.378503   
O206     O      0.020410000000     0.744730000000     0.701540000000    -0.378498   
O207     O      0.020440000000     0.790730000000     0.747360000000    -0.37857    
O208     O      0.020310000000     0.699500000000     0.747360000000    -0.380882   
O209     O      0.219720000000     0.540690000000     0.746530000000    -0.3829     
O210     O      0.220520000000     0.949480000000     0.748250000000    -0.382905   
O211     O      0.220080000000     0.996210000000     0.793190000000    -0.383132   
O212     O      0.220100000000     0.493950000000     0.701590000000    -0.382109   
O213     O      0.270380000000     0.496530000000     0.701590000000    -0.382146   
O214     O      0.270400000000     0.994270000000     0.793190000000    -0.38279    
O215     O      0.270760000000     0.949790000000     0.746530000000    -0.382364   
O216     O      0.269960000000     0.541010000000     0.748250000000    -0.383403   
O217     O      0.219640000000     0.699900000000     0.747350000000    -0.381856   
O218     O      0.220570000000     0.791130000000     0.747390000000    -0.384517   
O219     O      0.220070000000     0.745930000000     0.701550000000    -0.382049   
O220     O      0.220070000000     0.745900000000     0.793190000000    -0.381979   
O221     O      0.270410000000     0.744580000000     0.793190000000    -0.382026   
O222     O      0.270410000000     0.744550000000     0.701550000000    -0.3821     
O223     O      0.270830000000     0.790580000000     0.747350000000    -0.382056   
O224     O      0.269910000000     0.699350000000     0.747390000000    -0.384481   
O225     O      0.449350000000     0.519910000000     0.997350000000    -0.384992   
O226     O      0.040580000000     0.520830000000     0.997390000000    -0.379237   
O227     O      0.994580000000     0.520410000000     0.951550000000    -0.382334   
O228     O      0.494550000000     0.520410000000     0.543180000000    -0.382143   
O229     O      0.495930000000     0.970070000000     0.543180000000    -0.381231   
O230     O      0.995900000000     0.970070000000     0.951550000000    -0.381762   
O231     O      0.041130000000     0.970570000000     0.497340000000    -0.380619   
O232     O      0.449900000000     0.969650000000     0.497390000000    -0.381273   
O233     O      0.449500000000     0.770310000000     0.997360000000    -0.384716   
O234     O      0.040730000000     0.770440000000     0.997360000000    -0.379421   
O235     O      0.994730000000     0.770410000000     0.951540000000    -0.382396   
O236     O      0.494730000000     0.770410000000     0.543170000000    -0.382136   
O237     O      0.495750000000     0.720070000000     0.543170000000    -0.382128   
O238     O      0.995750000000     0.720070000000     0.951540000000    -0.38273    
O239     O      0.040980000000     0.720170000000     0.497360000000    -0.381411   
O240     O      0.449750000000     0.720040000000     0.497360000000    -0.382189   
O241     O      0.199780000000     0.520760000000     0.998230000000    -0.383167   
O242     O      0.291000000000     0.519960000000     0.996520000000    -0.383703   
O243     O      0.244270000000     0.520400000000     0.951580000000    -0.38153    
O244     O      0.246530000000     0.520380000000     0.543180000000    -0.382153   
O245     O      0.243950000000     0.970100000000     0.543180000000    -0.38125    
O246     O      0.246210000000     0.970080000000     0.951580000000    -0.380557   
O247     O      0.290690000000     0.969720000000     0.498230000000    -0.382054   
O248     O      0.199480000000     0.970520000000     0.496520000000    -0.382548   
O249     O      0.199500000000     0.770310000000     0.997370000000    -0.384835   
O250     O      0.290730000000     0.770430000000     0.997370000000    -0.382517   
O251     O      0.244730000000     0.770410000000     0.951550000000    -0.381608   
O252     O      0.244730000000     0.770410000000     0.543190000000    -0.382095   
O253     O      0.245750000000     0.720070000000     0.543190000000    -0.382078   
O254     O      0.245750000000     0.720070000000     0.951550000000    -0.38158    
O255     O      0.290980000000     0.720170000000     0.497370000000    -0.384663   
O256     O      0.199740000000     0.720050000000     0.497370000000    -0.382087   
O257     O      0.970170000000     0.040980000000     0.247370000000    -0.380554   
O258     O      0.970040000000     0.449750000000     0.247370000000    -0.381204   
O259     O      0.970070000000     0.495750000000     0.293180000000    -0.381336   
O260     O      0.970070000000     0.995750000000     0.201550000000    -0.382258   
O261     O      0.520410000000     0.994730000000     0.201550000000    -0.38279    
O262     O      0.520410000000     0.494730000000     0.293180000000    -0.382241   
O263     O      0.520310000000     0.449500000000     0.247370000000    -0.384451   
O264     O      0.520430000000     0.040740000000     0.247370000000    -0.378964   
O265     O      0.970040000000     0.199750000000     0.247360000000    -0.381261   
O266     O      0.970170000000     0.290980000000     0.247360000000    -0.383435   
O267     O      0.970070000000     0.245750000000     0.201540000000    -0.381088   
O268     O      0.970070000000     0.245750000000     0.293170000000    -0.381211   
O269     O      0.520410000000     0.244730000000     0.293170000000    -0.382133   
O270     O      0.520410000000     0.244730000000     0.201540000000    -0.382005   
O271     O      0.520440000000     0.290730000000     0.247360000000    -0.382155   
O272     O      0.520310000000     0.199500000000     0.247360000000    -0.384312   
O273     O      0.719720000000     0.040690000000     0.246530000000    -0.379681   
O274     O      0.720520000000     0.449480000000     0.248250000000    -0.383504   
O275     O      0.720080000000     0.496210000000     0.293190000000    -0.382088   
O276     O      0.720100000000     0.993950000000     0.201590000000    -0.382788   
O277     O      0.770380000000     0.996540000000     0.201590000000    -0.383239   
O278     O      0.770390000000     0.494270000000     0.293190000000    -0.382189   
O279     O      0.770760000000     0.449790000000     0.246530000000    -0.382825   
O280     O      0.769960000000     0.041000000000     0.248250000000    -0.380392   
O281     O      0.719640000000     0.199900000000     0.247350000000    -0.381815   
O282     O      0.720570000000     0.291140000000     0.247390000000    -0.384545   
O283     O      0.720070000000     0.245930000000     0.201560000000    -0.381877   
O284     O      0.720070000000     0.245900000000     0.293190000000    -0.382046   
O285     O      0.770410000000     0.244580000000     0.293190000000    -0.382073   
O286     O      0.770410000000     0.244550000000     0.201560000000    -0.381909   
O287     O      0.770840000000     0.290580000000     0.247350000000    -0.381846   
O288     O      0.769910000000     0.199350000000     0.247390000000    -0.384442   
O289     O      0.949340000000     0.019910000000     0.497340000000    -0.380581   
O290     O      0.540580000000     0.020840000000     0.497390000000    -0.378232   
O291     O      0.494580000000     0.020410000000     0.451550000000    -0.378452   
O292     O      0.994550000000     0.020410000000     0.043180000000    -0.375966   
O293     O      0.995930000000     0.470070000000     0.043180000000    -0.379904   
O294     O      0.495900000000     0.470070000000     0.451550000000    -0.382075   
O295     O      0.541130000000     0.470570000000     0.997350000000    -0.384949   
O296     O      0.949900000000     0.469640000000     0.997390000000    -0.381703   
O297     O      0.949500000000     0.270310000000     0.497360000000    -0.383913   
O298     O      0.540730000000     0.270440000000     0.497360000000    -0.382192   
O299     O      0.494730000000     0.270410000000     0.451540000000    -0.382146   
O300     O      0.994730000000     0.270410000000     0.043170000000    -0.379568   
O301     O      0.995750000000     0.220070000000     0.043170000000    -0.379861   
O302     O      0.495750000000     0.220070000000     0.451540000000    -0.382098   
O303     O      0.540980000000     0.220170000000     0.997360000000    -0.384705   
O304     O      0.949750000000     0.220040000000     0.997360000000    -0.381986   
O305     O      0.699780000000     0.020760000000     0.498230000000    -0.379373   
O306     O      0.791000000000     0.019960000000     0.496520000000    -0.379868   
O307     O      0.744270000000     0.020400000000     0.451580000000    -0.378409   
O308     O      0.746530000000     0.020380000000     0.043180000000    -0.375213   
O309     O      0.743940000000     0.470100000000     0.043180000000    -0.378801   
O310     O      0.746210000000     0.470080000000     0.451580000000    -0.382019   
O311     O      0.790690000000     0.469720000000     0.998230000000    -0.383226   
O312     O      0.699470000000     0.470520000000     0.996520000000    -0.383665   
O313     O      0.699500000000     0.270310000000     0.497370000000    -0.384587   
O314     O      0.790730000000     0.270430000000     0.497370000000    -0.382329   
O315     O      0.744730000000     0.270410000000     0.451550000000    -0.382165   
O316     O      0.744730000000     0.270410000000     0.043190000000    -0.378755   
O317     O      0.745750000000     0.220070000000     0.043190000000    -0.378693   
O318     O      0.745750000000     0.220070000000     0.451550000000    -0.382102   
O319     O      0.790980000000     0.220170000000     0.997370000000    -0.384827   
O320     O      0.699740000000     0.220050000000     0.997370000000    -0.382422   
O321     O      0.970160000000     0.040980000000     0.747370000000    -0.380443   
O322     O      0.970040000000     0.449750000000     0.747370000000    -0.381319   
O323     O      0.970070000000     0.495750000000     0.793180000000    -0.38131    
O324     O      0.970070000000     0.995750000000     0.701550000000    -0.382366   
O325     O      0.520410000000     0.994730000000     0.701550000000    -0.382891   
O326     O      0.520410000000     0.494730000000     0.793180000000    -0.382217   
O327     O      0.520310000000     0.449500000000     0.747370000000    -0.384629   
O328     O      0.520430000000     0.040740000000     0.747370000000    -0.378999   
O329     O      0.970040000000     0.199750000000     0.747360000000    -0.381295   
O330     O      0.970170000000     0.290980000000     0.747360000000    -0.383463   
O331     O      0.970070000000     0.245750000000     0.701540000000    -0.381187   
O332     O      0.970070000000     0.245750000000     0.793170000000    -0.381188   
O333     O      0.520410000000     0.244730000000     0.793170000000    -0.382112   
O334     O      0.520410000000     0.244730000000     0.701540000000    -0.382109   
O335     O      0.520430000000     0.290730000000     0.747360000000    -0.38234    
O336     O      0.520310000000     0.199500000000     0.747360000000    -0.384345   
O337     O      0.719720000000     0.040690000000     0.746530000000    -0.379812   
O338     O      0.720520000000     0.449480000000     0.748250000000    -0.38343    
O339     O      0.720080000000     0.496210000000     0.793190000000    -0.38207    
O340     O      0.720100000000     0.993950000000     0.701590000000    -0.382894   
O341     O      0.770380000000     0.996530000000     0.701590000000    -0.383353   
O342     O      0.770390000000     0.494270000000     0.793190000000    -0.382157   
O343     O      0.770760000000     0.449790000000     0.746530000000    -0.382903   
O344     O      0.769960000000     0.041000000000     0.748250000000    -0.380439   
O345     O      0.719640000000     0.199900000000     0.747350000000    -0.381767   
O346     O      0.720570000000     0.291130000000     0.747390000000    -0.38469    
O347     O      0.720070000000     0.245930000000     0.701550000000    -0.382082   
O348     O      0.720070000000     0.245900000000     0.793190000000    -0.382017   
O349     O      0.770410000000     0.244580000000     0.793190000000    -0.382031   
O350     O      0.770410000000     0.244550000000     0.701550000000    -0.3821     
O351     O      0.770840000000     0.290580000000     0.747350000000    -0.381854   
O352     O      0.769910000000     0.199350000000     0.747390000000    -0.384446   
O353     O      0.949350000000     0.019910000000     0.997350000000    -0.381096   
O354     O      0.540580000000     0.020840000000     0.997390000000    -0.378616   
O355     O      0.494580000000     0.020410000000     0.951550000000    -0.377933   
O356     O      0.994540000000     0.020410000000     0.543180000000    -0.379313   
O357     O      0.995930000000     0.470070000000     0.543180000000    -0.383294   
O358     O      0.495900000000     0.470070000000     0.951550000000    -0.381545   
O359     O      0.541130000000     0.470570000000     0.497340000000    -0.384515   
O360     O      0.949900000000     0.469650000000     0.497390000000    -0.381676   
O361     O      0.949500000000     0.270310000000     0.997360000000    -0.384198   
O362     O      0.540730000000     0.270440000000     0.997360000000    -0.382556   
O363     O      0.494730000000     0.270410000000     0.951540000000    -0.381608   
O364     O      0.994730000000     0.270410000000     0.543170000000    -0.382939   
O365     O      0.995750000000     0.220070000000     0.543170000000    -0.383232   
O366     O      0.495750000000     0.220070000000     0.951540000000    -0.381547   
O367     O      0.540980000000     0.220170000000     0.497360000000    -0.384355   
O368     O      0.949750000000     0.220040000000     0.497360000000    -0.381705   
O369     O      0.699790000000     0.020760000000     0.998230000000    -0.379692   
O370     O      0.791000000000     0.019960000000     0.996520000000    -0.380171   
O371     O      0.744270000000     0.020400000000     0.951580000000    -0.377884   
O372     O      0.746530000000     0.020380000000     0.543180000000    -0.378552   
O373     O      0.743950000000     0.470100000000     0.543180000000    -0.382181   
O374     O      0.746210000000     0.470090000000     0.951580000000    -0.381634   
O375     O      0.790690000000     0.469720000000     0.498230000000    -0.382818   
O376     O      0.699470000000     0.470520000000     0.496520000000    -0.38354    
O377     O      0.699500000000     0.270310000000     0.997370000000    -0.384867   
O378     O      0.790730000000     0.270440000000     0.997370000000    -0.38245    
O379     O      0.744730000000     0.270410000000     0.951550000000    -0.381619   
O380     O      0.744730000000     0.270410000000     0.543190000000    -0.382126   
O381     O      0.745750000000     0.220070000000     0.543190000000    -0.382061   
O382     O      0.745750000000     0.220070000000     0.951550000000    -0.381558   
O383     O      0.790980000000     0.220170000000     0.497370000000    -0.384606   
O384     O      0.699740000000     0.220050000000     0.497370000000    -0.38215    
O385     O      0.970170000000     0.540980000000     0.247370000000    -0.383623   
O386     O      0.970040000000     0.949740000000     0.247370000000    -0.380728   
O387     O      0.970070000000     0.995750000000     0.293180000000    -0.382465   
O388     O      0.970070000000     0.495750000000     0.201550000000    -0.381113   
O389     O      0.520410000000     0.494730000000     0.201550000000    -0.382016   
O390     O      0.520410000000     0.994730000000     0.293180000000    -0.383035   
O391     O      0.520310000000     0.949500000000     0.247370000000    -0.383985   
O392     O      0.520430000000     0.540740000000     0.247370000000    -0.382096   
O393     O      0.970040000000     0.699750000000     0.247360000000    -0.381378   
O394     O      0.970170000000     0.790980000000     0.247360000000    -0.383549   
O395     O      0.970070000000     0.745750000000     0.201540000000    -0.381102   
O396     O      0.970070000000     0.745750000000     0.293170000000    -0.381226   
O397     O      0.520410000000     0.744730000000     0.293170000000    -0.38213    
O398     O      0.520410000000     0.744730000000     0.201540000000    -0.382002   
O399     O      0.520440000000     0.790740000000     0.247360000000    -0.382206   
O400     O      0.520310000000     0.699500000000     0.247360000000    -0.384418   
O401     O      0.719720000000     0.540690000000     0.246530000000    -0.382789   
O402     O      0.720520000000     0.949480000000     0.248250000000    -0.383006   
O403     O      0.720080000000     0.996210000000     0.293190000000    -0.383249   
O404     O      0.720100000000     0.493950000000     0.201590000000    -0.382048   
O405     O      0.770380000000     0.496530000000     0.201590000000    -0.38206    
O406     O      0.770390000000     0.994270000000     0.293190000000    -0.382959   
O407     O      0.770760000000     0.949790000000     0.246530000000    -0.382352   
O408     O      0.769960000000     0.541000000000     0.248250000000    -0.383487   
O409     O      0.719640000000     0.699900000000     0.247350000000    -0.381963   
O410     O      0.720570000000     0.791130000000     0.247390000000    -0.38466    
O411     O      0.720070000000     0.745930000000     0.201560000000    -0.381905   
O412     O      0.720070000000     0.745900000000     0.293190000000    -0.382071   
O413     O      0.770410000000     0.744580000000     0.293190000000    -0.38208    
O414     O      0.770410000000     0.744550000000     0.201560000000    -0.381916   
O415     O      0.770840000000     0.790580000000     0.247350000000    -0.381902   
O416     O      0.769910000000     0.699350000000     0.247390000000    -0.384562   
O417     O      0.949340000000     0.519910000000     0.497340000000    -0.384056   
O418     O      0.540580000000     0.520840000000     0.497390000000    -0.38184    
O419     O      0.494580000000     0.520410000000     0.451550000000    -0.382063   
O420     O      0.994550000000     0.520410000000     0.043180000000    -0.379555   
O421     O      0.995930000000     0.970070000000     0.043180000000    -0.378989   
O422     O      0.495900000000     0.970070000000     0.451550000000    -0.381148   
O423     O      0.541130000000     0.970570000000     0.997350000000    -0.383947   
O424     O      0.949900000000     0.969650000000     0.997390000000    -0.38101    
O425     O      0.949500000000     0.770310000000     0.497360000000    -0.383913   
O426     O      0.540730000000     0.770440000000     0.497360000000    -0.382185   
O427     O      0.494730000000     0.770410000000     0.451540000000    -0.38214    
O428     O      0.994730000000     0.770410000000     0.043170000000    -0.379561   
O429     O      0.995750000000     0.720070000000     0.043170000000    -0.379892   
O430     O      0.495750000000     0.720070000000     0.451540000000    -0.382132   
O431     O      0.540980000000     0.720170000000     0.997360000000    -0.384733   
O432     O      0.949750000000     0.720040000000     0.997360000000    -0.382005   
O433     O      0.699780000000     0.520760000000     0.498230000000    -0.382933   
O434     O      0.791000000000     0.519960000000     0.496520000000    -0.383407   
O435     O      0.744270000000     0.520400000000     0.451580000000    -0.382013   
O436     O      0.746530000000     0.520380000000     0.043180000000    -0.378806   
O437     O      0.743940000000     0.970100000000     0.043180000000    -0.377877   
O438     O      0.746210000000     0.970080000000     0.451580000000    -0.381093   
O439     O      0.790690000000     0.969720000000     0.998230000000    -0.382335   
O440     O      0.699470000000     0.970520000000     0.996520000000    -0.382767   
O441     O      0.699500000000     0.770320000000     0.497370000000    -0.384427   
O442     O      0.790730000000     0.770430000000     0.497370000000    -0.382317   
O443     O      0.744730000000     0.770410000000     0.451550000000    -0.382157   
O444     O      0.744730000000     0.770410000000     0.043190000000    -0.378751   
O445     O      0.745750000000     0.720070000000     0.043190000000    -0.378727   
O446     O      0.745750000000     0.720070000000     0.451550000000    -0.382137   
O447     O      0.790980000000     0.720170000000     0.997370000000    -0.384912   
O448     O      0.699740000000     0.720050000000     0.997370000000    -0.382459   
O449     O      0.970160000000     0.540980000000     0.747370000000    -0.383492   
O450     O      0.970040000000     0.949750000000     0.747370000000    -0.380782   
O451     O      0.970070000000     0.995750000000     0.793180000000    -0.382448   
O452     O      0.970070000000     0.495750000000     0.701550000000    -0.381208   
O453     O      0.520410000000     0.494730000000     0.701550000000    -0.382118   
O454     O      0.520410000000     0.994730000000     0.793180000000    -0.383008   
O455     O      0.520310000000     0.949500000000     0.747370000000    -0.384039   
O456     O      0.520430000000     0.540740000000     0.747370000000    -0.382131   
O457     O      0.970040000000     0.699750000000     0.747360000000    -0.381323   
O458     O      0.970170000000     0.790980000000     0.747360000000    -0.383454   
O459     O      0.970070000000     0.745750000000     0.701540000000    -0.381198   
O460     O      0.970070000000     0.745750000000     0.793170000000    -0.3812     
O461     O      0.520410000000     0.744730000000     0.793170000000    -0.382119   
O462     O      0.520410000000     0.744730000000     0.701540000000    -0.382117   
O463     O      0.520430000000     0.790730000000     0.747360000000    -0.382327   
O464     O      0.520310000000     0.699500000000     0.747360000000    -0.384379   
O465     O      0.719720000000     0.540690000000     0.746530000000    -0.382933   
O466     O      0.720520000000     0.949480000000     0.748250000000    -0.382935   
O467     O      0.720080000000     0.996210000000     0.793190000000    -0.383231   
O468     O      0.720100000000     0.493950000000     0.701590000000    -0.382147   
O469     O      0.770380000000     0.496530000000     0.701590000000    -0.382145   
O470     O      0.770390000000     0.994270000000     0.793190000000    -0.38294    
O471     O      0.770760000000     0.949790000000     0.746530000000    -0.382366   
O472     O      0.769960000000     0.541010000000     0.748250000000    -0.383398   
O473     O      0.719640000000     0.699900000000     0.747350000000    -0.381898   
O474     O      0.720570000000     0.791130000000     0.747390000000    -0.384583   
O475     O      0.720070000000     0.745930000000     0.701550000000    -0.382095   
O476     O      0.720070000000     0.745900000000     0.793190000000    -0.382029   
O477     O      0.770410000000     0.744580000000     0.793190000000    -0.382036   
O478     O      0.770410000000     0.744550000000     0.701550000000    -0.382105   
O479     O      0.770840000000     0.790580000000     0.747350000000    -0.381829   
O480     O      0.769910000000     0.699350000000     0.747390000000    -0.384489   
O481     O      0.949350000000     0.519910000000     0.997350000000    -0.384508   
O482     O      0.540580000000     0.520830000000     0.997390000000    -0.382373   
O483     O      0.494580000000     0.520410000000     0.951550000000    -0.38154    
O484     O      0.994540000000     0.520410000000     0.543180000000    -0.38292    
O485     O      0.995930000000     0.970070000000     0.543180000000    -0.38237    
O486     O      0.495900000000     0.970070000000     0.951550000000    -0.380624   
O487     O      0.541130000000     0.970570000000     0.497340000000    -0.383574   
O488     O      0.949900000000     0.969650000000     0.497390000000    -0.380832   
O489     O      0.949500000000     0.770310000000     0.997360000000    -0.384192   
O490     O      0.540730000000     0.770440000000     0.997360000000    -0.382545   
O491     O      0.494730000000     0.770410000000     0.951540000000    -0.381602   
O492     O      0.994730000000     0.770410000000     0.543170000000    -0.382933   
O493     O      0.995750000000     0.720070000000     0.543170000000    -0.383266   
O494     O      0.495750000000     0.720070000000     0.951540000000    -0.381581   
O495     O      0.540980000000     0.720170000000     0.497360000000    -0.384387   
O496     O      0.949750000000     0.720040000000     0.497360000000    -0.381731   
O497     O      0.699790000000     0.520760000000     0.998230000000    -0.383241   
O498     O      0.791000000000     0.519960000000     0.996520000000    -0.38371    
O499     O      0.744270000000     0.520400000000     0.951580000000    -0.381547   
O500     O      0.746530000000     0.520380000000     0.543180000000    -0.382167   
O501     O      0.743950000000     0.970100000000     0.543180000000    -0.381248   
O502     O      0.746210000000     0.970080000000     0.951580000000    -0.380554   
O503     O      0.790690000000     0.969720000000     0.498230000000    -0.381932   
O504     O      0.699470000000     0.970520000000     0.496520000000    -0.382638   
O505     O      0.699500000000     0.770310000000     0.997370000000    -0.384867   
O506     O      0.790730000000     0.770430000000     0.997370000000    -0.382598   
O507     O      0.744730000000     0.770410000000     0.951550000000    -0.381616   
O508     O      0.744730000000     0.770410000000     0.543190000000    -0.382117   
O509     O      0.745750000000     0.720070000000     0.543190000000    -0.382095   
O510     O      0.745750000000     0.720070000000     0.951550000000    -0.381594   
O511     O      0.790980000000     0.720170000000     0.497370000000    -0.384623   
O512     O      0.699740000000     0.720050000000     0.497370000000    -0.382118   


