data_structure

_audit_creation_method RASPA-1.0
_audit_creation_date 2023-5-22
_audit_author_name 'Poobodin Mano'

_cell_length_a    44.2518
_cell_length_b    44.252
_cell_length_c    44.4434
_cell_angle_alpha 90
_cell_angle_beta  90
_cell_angle_gamma 90
_cell_volume      87030.4

_symmetry_cell_setting          triclinic
_symmetry_space_group_name_Hall 'P 1'
_symmetry_space_group_name_H-M  'P 1'
_symmetry_Int_Tables_number     1

_symmetry_equiv_pos_as_xyz 'x,y,z'

loop_
_atom_site_label
_atom_site_type_symbol
_atom_site_fract_x
_atom_site_fract_y
_atom_site_fract_z
_atom_site_charge
C1       C      0.437420000000     0.497360000000     0.995230000000     0.346082   
C2       C      0.057320000000     0.997360000000     0.995230000000     0.346414   
C3       C      0.497370000000     0.437410000000     0.995230000000     0.346229   
C4       C      0.997370000000     0.057310000000     0.995230000000     0.346233   
C5       C      0.057300000000     0.997360000000     0.245230000000     0.348926   
C6       C      0.437450000000     0.497360000000     0.245230000000     0.348734   
C7       C      0.997370000000     0.057280000000     0.245230000000     0.348937   
C8       C      0.497370000000     0.437430000000     0.245230000000     0.348737   
C9       C      0.497370000000     0.247360000000     0.435410000000     0.348532   
C10      C      0.497370000000     0.247360000000     0.055040000000     0.348127   
C11      C      0.497370000000     0.187410000000     0.495230000000     0.349793   
C12      C      0.497370000000     0.307310000000     0.995230000000     0.350113   
C13      C      0.497370000000     0.247360000000     0.185410000000     0.34858    
C14      C      0.497370000000     0.247360000000     0.305040000000     0.348655   
C15      C      0.497370000000     0.187400000000     0.245230000000     0.349813   
C16      C      0.497370000000     0.307310000000     0.245230000000     0.34978    
C17      C      0.247370000000     0.497360000000     0.055040000000     0.348028   
C18      C      0.247370000000     0.497360000000     0.435410000000     0.348418   
C19      C      0.307330000000     0.497360000000     0.995230000000     0.349945   
C20      C      0.187420000000     0.497360000000     0.495230000000     0.349536   
C21      C      0.247370000000     0.497360000000     0.305040000000     0.348562   
C22      C      0.247370000000     0.497360000000     0.185410000000     0.348558   
C23      C      0.307330000000     0.497360000000     0.245230000000     0.349793   
C24      C      0.187420000000     0.497360000000     0.245230000000     0.349927   
C25      C      0.247390000000     0.024710000000     0.385950000000    -0.00138016 
C26      C      0.247370000000     0.497360000000     0.402060000000    -0.0816608  
C27      C      0.247350000000     0.470010000000     0.385950000000    -0.00530413 
C28      C      0.247380000000     0.470010000000     0.354500000000    -0.00525532 
C29      C      0.247370000000     0.497360000000     0.338390000000    -0.0817331  
C30      C      0.247370000000     0.024710000000     0.354500000000    -0.00133028 
C31      C      0.247380000000     0.024710000000     0.135950000000    -0.0011354  
C32      C      0.247370000000     0.497360000000     0.152060000000    -0.0817262  
C33      C      0.247370000000     0.470010000000     0.135950000000    -0.00506054 
C34      C      0.247390000000     0.470010000000     0.104500000000    -0.0053753  
C35      C      0.247370000000     0.497360000000     0.088390000000    -0.0810815  
C36      C      0.247360000000     0.024710000000     0.104500000000    -0.00145117 
C37      C      0.524710000000     0.248230000000     0.385950000000    -0.00528334 
C38      C      0.497370000000     0.247360000000     0.402060000000    -0.0817283  
C39      C      0.470030000000     0.246490000000     0.385950000000    -0.00530156 
C40      C      0.470030000000     0.246490000000     0.354500000000    -0.00532527 
C41      C      0.497370000000     0.247360000000     0.338400000000    -0.0816683  
C42      C      0.524710000000     0.248230000000     0.354500000000    -0.00529982 
C43      C      0.470030000000     0.248230000000     0.104500000000    -0.00544042 
C44      C      0.497370000000     0.247360000000     0.088400000000    -0.0810237  
C45      C      0.024710000000     0.246480000000     0.104500000000    -0.00148955 
C46      C      0.024710000000     0.246480000000     0.135950000000    -0.00112714 
C47      C      0.497370000000     0.247360000000     0.152060000000    -0.0817606  
C48      C      0.470030000000     0.248230000000     0.135950000000    -0.00507612 
C49      C      0.106560000000     0.477780000000     0.264300000000    -0.00417139 
C50      C      0.090550000000     0.997360000000     0.245230000000    -0.0864375  
C51      C      0.106560000000     0.016930000000     0.226150000000     0.000829544
C52      C      0.138150000000     0.017300000000     0.226540000000     0.000455514
C53      C      0.154160000000     0.997360000000     0.245230000000    -0.0856221  
C54      C      0.138150000000     0.477410000000     0.263920000000    -0.00314705 
C55      C      0.356600000000     0.017290000000     0.263930000000     9.72591e-05
C56      C      0.340590000000     0.497360000000     0.245230000000    -0.0823494  
C57      C      0.356600000000     0.477420000000     0.226520000000    -0.00343593 
C58      C      0.388190000000     0.477790000000     0.226140000000    -0.00406808 
C59      C      0.404190000000     0.497360000000     0.245230000000    -0.0819493  
C60      C      0.388190000000     0.016920000000     0.264310000000     0.000994426
C61      C      0.477820000000     0.388170000000     0.264320000000    -0.00395677 
C62      C      0.497370000000     0.404170000000     0.245230000000    -0.0819289  
C63      C      0.016930000000     0.388170000000     0.226130000000     0.00101708 
C64      C      0.017300000000     0.356580000000     0.226510000000     9.13184e-05
C65      C      0.497370000000     0.340570000000     0.245230000000    -0.0822626  
C66      C      0.477450000000     0.356580000000     0.263940000000    -0.00341142 
C67      C      0.016930000000     0.106550000000     0.264320000000     0.000861479
C68      C      0.997370000000     0.090540000000     0.245230000000    -0.0862735  
C69      C      0.477820000000     0.106550000000     0.226130000000    -0.00415745 
C70      C      0.477450000000     0.138130000000     0.226520000000    -0.00303431 
C71      C      0.997370000000     0.154140000000     0.245230000000    -0.0855359  
C72      C      0.017300000000     0.138130000000     0.263940000000     0.000386918
C73      C      0.106570000000     0.478360000000     0.014870000000    -0.000877243
C74      C      0.090570000000     0.997360000000     0.495230000000    -0.0864391  
C75      C      0.106570000000     0.016360000000     0.475580000000     0.00168415 
C76      C      0.138160000000     0.016750000000     0.475960000000     0.000150446
C77      C      0.154160000000     0.997360000000     0.495230000000    -0.0849614  
C78      C      0.138160000000     0.477970000000     0.014490000000     4.98942e-05
C79      C      0.388180000000     0.016360000000     0.014870000000     0.00416443 
C80      C      0.404170000000     0.497360000000     0.995230000000    -0.0842618  
C81      C      0.388180000000     0.478360000000     0.475580000000    -0.00323459 
C82      C      0.356580000000     0.477970000000     0.475960000000    -0.00363081 
C83      C      0.340580000000     0.497360000000     0.995230000000    -0.0854255  
C84      C      0.356580000000     0.016750000000     0.014480000000     0.00339869 
C85      C      0.016350000000     0.388160000000     0.014890000000     0.00424929 
C86      C      0.497370000000     0.404160000000     0.995230000000    -0.0842769  
C87      C      0.478390000000     0.388160000000     0.475560000000    -0.00324817 
C88      C      0.478000000000     0.356570000000     0.475940000000    -0.00365965 
C89      C      0.497370000000     0.340570000000     0.995230000000    -0.0853601  
C90      C      0.016740000000     0.356570000000     0.014510000000     0.00328522 
C91      C      0.016360000000     0.106560000000     0.475570000000     0.00151401 
C92      C      0.997370000000     0.090560000000     0.495230000000    -0.0862172  
C93      C      0.478380000000     0.106560000000     0.014880000000    -0.00103019 
C94      C      0.477990000000     0.138150000000     0.014490000000     0.000230537
C95      C      0.997370000000     0.154150000000     0.495230000000    -0.0851522  
C96      C      0.016750000000     0.138150000000     0.475960000000     0.000325976
C97      C      0.437420000000     0.497360000000     0.495230000000     0.349094   
C98      C      0.057320000000     0.997360000000     0.495230000000     0.349416   
C99      C      0.497370000000     0.437410000000     0.495230000000     0.349247   
C100     C      0.997370000000     0.057310000000     0.495230000000     0.348976   
C101     C      0.057300000000     0.997360000000     0.745230000000     0.348934   
C102     C      0.437450000000     0.497360000000     0.745230000000     0.348741   
C103     C      0.997370000000     0.057280000000     0.745230000000     0.348943   
C104     C      0.497370000000     0.437430000000     0.745230000000     0.348749   
C105     C      0.497370000000     0.247360000000     0.935410000000     0.348309   
C106     C      0.497370000000     0.247360000000     0.555040000000     0.348571   
C107     C      0.497370000000     0.187410000000     0.995230000000     0.350373   
C108     C      0.497370000000     0.307310000000     0.495230000000     0.349527   
C109     C      0.497370000000     0.247360000000     0.685410000000     0.34854    
C110     C      0.497370000000     0.247360000000     0.805040000000     0.348662   
C111     C      0.497370000000     0.187400000000     0.745230000000     0.349815   
C112     C      0.497370000000     0.307310000000     0.745230000000     0.34978    
C113     C      0.247370000000     0.497360000000     0.555040000000     0.34839    
C114     C      0.247370000000     0.497360000000     0.935410000000     0.348267   
C115     C      0.307330000000     0.497360000000     0.495230000000     0.349365   
C116     C      0.187420000000     0.497360000000     0.995230000000     0.350117   
C117     C      0.247370000000     0.497360000000     0.805040000000     0.348568   
C118     C      0.247370000000     0.497360000000     0.685410000000     0.348525   
C119     C      0.307330000000     0.497360000000     0.745230000000     0.349796   
C120     C      0.187420000000     0.497360000000     0.745230000000     0.34993    
C121     C      0.247390000000     0.024710000000     0.885950000000    -0.0014127  
C122     C      0.247370000000     0.497360000000     0.902060000000    -0.0816578  
C123     C      0.247350000000     0.470010000000     0.885950000000    -0.00533363 
C124     C      0.247380000000     0.470010000000     0.854500000000    -0.0052719  
C125     C      0.247370000000     0.497360000000     0.838390000000    -0.0817472  
C126     C      0.247370000000     0.024710000000     0.854500000000    -0.00134728 
C127     C      0.247380000000     0.024710000000     0.635950000000    -0.0013032  
C128     C      0.247370000000     0.497360000000     0.652060000000    -0.0817267  
C129     C      0.247370000000     0.470010000000     0.635950000000    -0.00523334 
C130     C      0.247390000000     0.470010000000     0.604500000000    -0.0053446  
C131     C      0.247370000000     0.497360000000     0.588400000000    -0.0815564  
C132     C      0.247360000000     0.024710000000     0.604500000000    -0.00140821 
C133     C      0.524710000000     0.248230000000     0.885950000000    -0.00531977 
C134     C      0.497370000000     0.247360000000     0.902060000000    -0.0817101  
C135     C      0.470030000000     0.246490000000     0.885950000000    -0.00534353 
C136     C      0.470030000000     0.246490000000     0.854500000000    -0.00533666 
C137     C      0.497370000000     0.247360000000     0.838400000000    -0.0816859  
C138     C      0.524710000000     0.248230000000     0.854500000000    -0.00531267 
C139     C      0.470030000000     0.248230000000     0.604500000000    -0.00535523 
C140     C      0.497370000000     0.247360000000     0.588400000000    -0.0816175  
C141     C      0.024710000000     0.246480000000     0.604500000000    -0.00139525 
C142     C      0.024710000000     0.246480000000     0.635950000000    -0.00132264 
C143     C      0.497370000000     0.247360000000     0.652060000000    -0.0817399  
C144     C      0.470030000000     0.248230000000     0.635950000000    -0.00527798 
C145     C      0.106560000000     0.477780000000     0.764300000000    -0.00418133 
C146     C      0.090550000000     0.997360000000     0.745230000000    -0.0864575  
C147     C      0.106560000000     0.016930000000     0.726150000000     0.000810701
C148     C      0.138150000000     0.017300000000     0.726540000000     0.000440089
C149     C      0.154160000000     0.997360000000     0.745230000000    -0.0856511  
C150     C      0.138150000000     0.477410000000     0.763920000000    -0.00315427 
C151     C      0.356600000000     0.017290000000     0.763930000000     9.21313e-05
C152     C      0.340590000000     0.497360000000     0.745230000000    -0.0823761  
C153     C      0.356600000000     0.477420000000     0.726520000000    -0.00345453 
C154     C      0.388190000000     0.477790000000     0.726140000000    -0.0040905  
C155     C      0.404190000000     0.497360000000     0.745230000000    -0.0819666  
C156     C      0.388190000000     0.016920000000     0.764310000000     0.00098772 
C157     C      0.477820000000     0.388170000000     0.764320000000    -0.00396224 
C158     C      0.497370000000     0.404170000000     0.745230000000    -0.081961   
C159     C      0.016930000000     0.388170000000     0.726130000000     0.00102625 
C160     C      0.017300000000     0.356580000000     0.726510000000     5.93604e-05
C161     C      0.497370000000     0.340570000000     0.745230000000    -0.0822845  
C162     C      0.477450000000     0.356580000000     0.763940000000    -0.00342658 
C163     C      0.016930000000     0.106550000000     0.764320000000     0.000851971
C164     C      0.997370000000     0.090540000000     0.745230000000    -0.0862938  
C165     C      0.477820000000     0.106550000000     0.726130000000    -0.00418193 
C166     C      0.477450000000     0.138130000000     0.726520000000    -0.00305325 
C167     C      0.997370000000     0.154140000000     0.745230000000    -0.0855662  
C168     C      0.017300000000     0.138130000000     0.763940000000     0.000380225
C169     C      0.106570000000     0.478360000000     0.514870000000    -0.00328116 
C170     C      0.090570000000     0.997360000000     0.995230000000    -0.0886379  
C171     C      0.106570000000     0.016360000000     0.975580000000     0.00142031 
C172     C      0.138160000000     0.016750000000     0.975960000000     0.000790888
C173     C      0.154160000000     0.997360000000     0.995230000000    -0.0885433  
C174     C      0.138160000000     0.477970000000     0.514490000000    -0.00338866 
C175     C      0.388180000000     0.016360000000     0.514870000000     0.001743   
C176     C      0.404170000000     0.497360000000     0.495230000000    -0.0820331  
C177     C      0.388180000000     0.478360000000     0.975580000000    -0.00348316 
C178     C      0.356580000000     0.477970000000     0.975960000000    -0.00298862 
C179     C      0.340580000000     0.497360000000     0.495230000000    -0.0818325  
C180     C      0.356580000000     0.016750000000     0.514480000000    -1.1513e-05 
C181     C      0.016350000000     0.388160000000     0.514890000000     0.00185996 
C182     C      0.497370000000     0.404160000000     0.495230000000    -0.0820638  
C183     C      0.478390000000     0.388160000000     0.975560000000    -0.00350556 
C184     C      0.478000000000     0.356570000000     0.975940000000    -0.00301029 
C185     C      0.497370000000     0.340570000000     0.495230000000    -0.0817602  
C186     C      0.016740000000     0.356570000000     0.514510000000    -0.000139189
C187     C      0.016360000000     0.106560000000     0.975570000000     0.00130074 
C188     C      0.997370000000     0.090560000000     0.995230000000    -0.088526   
C189     C      0.478380000000     0.106560000000     0.514880000000    -0.00348434 
C190     C      0.477990000000     0.138150000000     0.514490000000    -0.00318387 
C191     C      0.997370000000     0.154150000000     0.995230000000    -0.0887185  
C192     C      0.016750000000     0.138150000000     0.975960000000     0.000941583
C193     C      0.437420000000     0.997360000000     0.995230000000     0.346925   
C194     C      0.057320000000     0.497360000000     0.995230000000     0.345584   
C195     C      0.497370000000     0.937410000000     0.995230000000     0.346011   
C196     C      0.997370000000     0.557310000000     0.995230000000     0.346911   
C197     C      0.057300000000     0.497360000000     0.245230000000     0.348076   
C198     C      0.437450000000     0.997360000000     0.245230000000     0.349586   
C199     C      0.997370000000     0.557280000000     0.245230000000     0.34963    
C200     C      0.497370000000     0.937430000000     0.245230000000     0.348453   
C201     C      0.497370000000     0.747360000000     0.435410000000     0.34853    
C202     C      0.497370000000     0.747360000000     0.055040000000     0.348125   
C203     C      0.497370000000     0.687410000000     0.495230000000     0.349735   
C204     C      0.497370000000     0.807310000000     0.995230000000     0.350124   
C205     C      0.497370000000     0.747360000000     0.185410000000     0.348589   
C206     C      0.497370000000     0.747360000000     0.305040000000     0.348663   
C207     C      0.497370000000     0.687400000000     0.245230000000     0.349614   
C208     C      0.497370000000     0.807310000000     0.245230000000     0.349801   
C209     C      0.247370000000     0.997360000000     0.055040000000     0.343772   
C210     C      0.247370000000     0.997360000000     0.435410000000     0.34415    
C211     C      0.307330000000     0.997360000000     0.995230000000     0.345557   
C212     C      0.187420000000     0.997360000000     0.495230000000     0.345143   
C213     C      0.247370000000     0.997360000000     0.305040000000     0.344296   
C214     C      0.247370000000     0.997360000000     0.185410000000     0.344294   
C215     C      0.307330000000     0.997360000000     0.245230000000     0.34539    
C216     C      0.187420000000     0.997360000000     0.245230000000     0.345527   
C217     C      0.247390000000     0.524710000000     0.385950000000    -0.00530379 
C218     C      0.247370000000     0.997360000000     0.402060000000    -0.0852321  
C219     C      0.247350000000     0.970010000000     0.385950000000    -0.00518046 
C220     C      0.247380000000     0.970010000000     0.354500000000    -0.00513156 
C221     C      0.247370000000     0.997360000000     0.338390000000    -0.085304   
C222     C      0.247370000000     0.524710000000     0.354500000000    -0.00525299 
C223     C      0.247380000000     0.524710000000     0.135950000000    -0.00505325 
C224     C      0.247370000000     0.997360000000     0.152060000000    -0.085292   
C225     C      0.247370000000     0.970010000000     0.135950000000    -0.00493722 
C226     C      0.247390000000     0.970010000000     0.104500000000    -0.0052517  
C227     C      0.247370000000     0.997360000000     0.088390000000    -0.0846484  
C228     C      0.247360000000     0.524710000000     0.104500000000    -0.00536638 
C229     C      0.524710000000     0.748230000000     0.385950000000    -0.0053016  
C230     C      0.497370000000     0.747360000000     0.402060000000    -0.0817487  
C231     C      0.470030000000     0.746490000000     0.385950000000    -0.0053225  
C232     C      0.470030000000     0.746490000000     0.354500000000    -0.00534349 
C233     C      0.497370000000     0.747360000000     0.338400000000    -0.0816926  
C234     C      0.524710000000     0.748230000000     0.354500000000    -0.00531549 
C235     C      0.470030000000     0.748230000000     0.104500000000    -0.00545878 
C236     C      0.497370000000     0.747360000000     0.088400000000    -0.0810435  
C237     C      0.024710000000     0.746480000000     0.104500000000    -0.00150143 
C238     C      0.024710000000     0.746480000000     0.135950000000    -0.00113598 
C239     C      0.497370000000     0.747360000000     0.152060000000    -0.081785   
C240     C      0.470030000000     0.748230000000     0.135950000000    -0.00509156 
C241     C      0.106560000000     0.977790000000     0.264300000000    -0.0031776  
C242     C      0.090550000000     0.497360000000     0.245230000000    -0.081187   
C243     C      0.106560000000     0.516930000000     0.226150000000    -0.00416078 
C244     C      0.138150000000     0.517300000000     0.226540000000    -0.00306148 
C245     C      0.154160000000     0.497360000000     0.245230000000    -0.0824136  
C246     C      0.138150000000     0.977410000000     0.263920000000    -0.00356454 
C247     C      0.356600000000     0.517290000000     0.263930000000    -0.00340318 
C248     C      0.340590000000     0.997360000000     0.245230000000    -0.0855661  
C249     C      0.356600000000     0.977420000000     0.226520000000    -0.00383019 
C250     C      0.388190000000     0.977790000000     0.226140000000    -0.0031208  
C251     C      0.404190000000     0.997360000000     0.245230000000    -0.0872161  
C252     C      0.388190000000     0.516920000000     0.264310000000    -0.00407542 
C253     C      0.477820000000     0.888170000000     0.264320000000    -0.00399528 
C254     C      0.497370000000     0.904170000000     0.245230000000    -0.0818837  
C255     C      0.016930000000     0.888170000000     0.226130000000     0.000978283
C256     C      0.017300000000     0.856580000000     0.226510000000     9.80059e-05
C257     C      0.497370000000     0.840570000000     0.245230000000    -0.0822704  
C258     C      0.477450000000     0.856580000000     0.263940000000    -0.00341179 
C259     C      0.016930000000     0.606540000000     0.264320000000     0.00104958 
C260     C      0.997370000000     0.590540000000     0.245230000000    -0.0871611  
C261     C      0.477820000000     0.606540000000     0.226130000000    -0.00399713 
C262     C      0.477450000000     0.638130000000     0.226520000000    -0.00334345 
C263     C      0.997370000000     0.654140000000     0.245230000000    -0.0854601  
C264     C      0.017300000000     0.638130000000     0.263940000000     8.83558e-05
C265     C      0.106570000000     0.978360000000     0.014870000000     3.33689e-05
C266     C      0.090570000000     0.497360000000     0.495230000000    -0.0812439  
C267     C      0.106570000000     0.516350000000     0.475580000000    -0.00326493 
C268     C      0.138160000000     0.516750000000     0.475960000000    -0.00340936 
C269     C      0.154160000000     0.497360000000     0.495230000000    -0.0817224  
C270     C      0.138160000000     0.977970000000     0.014490000000    -0.000326686
C271     C      0.388180000000     0.516360000000     0.014870000000    -0.000840524
C272     C      0.404170000000     0.997360000000     0.995230000000    -0.0894872  
C273     C      0.388180000000     0.978360000000     0.475580000000    -0.00230086 
C274     C      0.356580000000     0.977970000000     0.475960000000    -0.00401366 
C275     C      0.340580000000     0.997360000000     0.995230000000    -0.0886505  
C276     C      0.356580000000     0.516750000000     0.014480000000    -0.000141717
C277     C      0.016350000000     0.888160000000     0.014890000000     0.00420777 
C278     C      0.497370000000     0.904160000000     0.995230000000    -0.0842428  
C279     C      0.478390000000     0.888160000000     0.475560000000    -0.00329275 
C280     C      0.478000000000     0.856570000000     0.475940000000    -0.00366084 
C281     C      0.497370000000     0.840570000000     0.995230000000    -0.0853663  
C282     C      0.016740000000     0.856570000000     0.014510000000     0.00329055 
C283     C      0.016360000000     0.606560000000     0.475570000000     0.00167535 
C284     C      0.997370000000     0.590560000000     0.495230000000    -0.087106   
C285     C      0.478380000000     0.606560000000     0.014880000000    -0.000884107
C286     C      0.477990000000     0.638150000000     0.014490000000    -5.04877e-05
C287     C      0.997370000000     0.654150000000     0.495230000000    -0.0851148  
C288     C      0.016750000000     0.638150000000     0.475960000000     4.93949e-05
C289     C      0.437420000000     0.997360000000     0.495230000000     0.349933   
C290     C      0.057320000000     0.497360000000     0.495230000000     0.348591   
C291     C      0.497370000000     0.937410000000     0.495230000000     0.349024   
C292     C      0.997370000000     0.557310000000     0.495230000000     0.349664   
C293     C      0.057300000000     0.497360000000     0.745230000000     0.348083   
C294     C      0.437450000000     0.997360000000     0.745230000000     0.349594   
C295     C      0.997370000000     0.557280000000     0.745230000000     0.349637   
C296     C      0.497370000000     0.937430000000     0.745230000000     0.348465   
C297     C      0.497370000000     0.747360000000     0.935410000000     0.348307   
C298     C      0.497370000000     0.747360000000     0.555040000000     0.348569   
C299     C      0.497370000000     0.687410000000     0.995230000000     0.350316   
C300     C      0.497370000000     0.807310000000     0.495230000000     0.349538   
C301     C      0.497370000000     0.747360000000     0.685410000000     0.348548   
C302     C      0.497370000000     0.747360000000     0.805040000000     0.34867    
C303     C      0.497370000000     0.687400000000     0.745230000000     0.349616   
C304     C      0.497370000000     0.807310000000     0.745230000000     0.349801   
C305     C      0.247370000000     0.997360000000     0.555040000000     0.344122   
C306     C      0.247370000000     0.997360000000     0.935410000000     0.344006   
C307     C      0.307330000000     0.997360000000     0.495230000000     0.344971   
C308     C      0.187420000000     0.997360000000     0.995230000000     0.345732   
C309     C      0.247370000000     0.997360000000     0.805040000000     0.344301   
C310     C      0.247370000000     0.997360000000     0.685410000000     0.344257   
C311     C      0.307330000000     0.997360000000     0.745230000000     0.345391   
C312     C      0.187420000000     0.997360000000     0.745230000000     0.345528   
C313     C      0.247390000000     0.524710000000     0.885950000000    -0.0053333  
C314     C      0.247370000000     0.997360000000     0.902060000000    -0.0852266  
C315     C      0.247350000000     0.970010000000     0.885950000000    -0.00521    
C316     C      0.247380000000     0.970010000000     0.854500000000    -0.00514812 
C317     C      0.247370000000     0.997360000000     0.838390000000    -0.0853161  
C318     C      0.247370000000     0.524710000000     0.854500000000    -0.00526958 
C319     C      0.247380000000     0.524710000000     0.635950000000    -0.00522603 
C320     C      0.247370000000     0.997360000000     0.652060000000    -0.0852974  
C321     C      0.247370000000     0.970010000000     0.635950000000    -0.00511096 
C322     C      0.247390000000     0.970010000000     0.604500000000    -0.0052179  
C323     C      0.247370000000     0.997360000000     0.588400000000    -0.0851322  
C324     C      0.247360000000     0.524710000000     0.604500000000    -0.00533564 
C325     C      0.524710000000     0.748230000000     0.885950000000    -0.00533806 
C326     C      0.497370000000     0.747360000000     0.902060000000    -0.0817305  
C327     C      0.470030000000     0.746490000000     0.885950000000    -0.00536452 
C328     C      0.470030000000     0.746490000000     0.854500000000    -0.00535486 
C329     C      0.497370000000     0.747360000000     0.838400000000    -0.0817102  
C330     C      0.524710000000     0.748230000000     0.854500000000    -0.0053283  
C331     C      0.470030000000     0.748230000000     0.604500000000    -0.00537352 
C332     C      0.497370000000     0.747360000000     0.588400000000    -0.0816379  
C333     C      0.024710000000     0.746480000000     0.604500000000    -0.00140709 
C334     C      0.024710000000     0.746480000000     0.635950000000    -0.00133176 
C335     C      0.497370000000     0.747360000000     0.652060000000    -0.0817643  
C336     C      0.470030000000     0.748230000000     0.635950000000    -0.00529368 
C337     C      0.106560000000     0.977790000000     0.764300000000    -0.00318666 
C338     C      0.090550000000     0.497360000000     0.745230000000    -0.0812037  
C339     C      0.106560000000     0.516930000000     0.726150000000    -0.0041834  
C340     C      0.138150000000     0.517300000000     0.726540000000    -0.00307974 
C341     C      0.154160000000     0.497360000000     0.745230000000    -0.0824404  
C342     C      0.138150000000     0.977410000000     0.763920000000    -0.00357165 
C343     C      0.356600000000     0.517290000000     0.763930000000    -0.00341058 
C344     C      0.340590000000     0.997360000000     0.745230000000    -0.085594   
C345     C      0.356600000000     0.977420000000     0.726520000000    -0.00384909 
C346     C      0.388190000000     0.977790000000     0.726140000000    -0.00314284 
C347     C      0.404190000000     0.997360000000     0.745230000000    -0.0872356  
C348     C      0.388190000000     0.516920000000     0.764310000000    -0.00408516 
C349     C      0.477820000000     0.888170000000     0.764320000000    -0.00400078 
C350     C      0.497370000000     0.904170000000     0.745230000000    -0.0819157  
C351     C      0.016930000000     0.888170000000     0.726130000000     0.000987392
C352     C      0.017300000000     0.856580000000     0.726510000000     6.6043e-05 
C353     C      0.497370000000     0.840570000000     0.745230000000    -0.0822923  
C354     C      0.477450000000     0.856580000000     0.763940000000    -0.00342695 
C355     C      0.016930000000     0.606540000000     0.764320000000     0.00104023 
C356     C      0.997370000000     0.590540000000     0.745230000000    -0.0871821  
C357     C      0.477820000000     0.606540000000     0.726130000000    -0.00402154 
C358     C      0.477450000000     0.638130000000     0.726520000000    -0.00336271 
C359     C      0.997370000000     0.654140000000     0.745230000000    -0.0854904  
C360     C      0.017300000000     0.638130000000     0.763940000000     8.1463e-05 
C361     C      0.106570000000     0.978360000000     0.514870000000    -0.00236571 
C362     C      0.090570000000     0.497360000000     0.995230000000    -0.0834551  
C363     C      0.106570000000     0.516350000000     0.975580000000    -0.00352071 
C364     C      0.138160000000     0.516750000000     0.975960000000    -0.00276275 
C365     C      0.154160000000     0.497360000000     0.995230000000    -0.0853152  
C366     C      0.138160000000     0.977970000000     0.514490000000    -0.00376127 
C367     C      0.388180000000     0.516360000000     0.514870000000    -0.00328323 
C368     C      0.404170000000     0.997360000000     0.495230000000    -0.0872793  
C369     C      0.388180000000     0.978360000000     0.975580000000    -0.00255186 
C370     C      0.356580000000     0.977970000000     0.975960000000    -0.00337295 
C371     C      0.340580000000     0.997360000000     0.495230000000    -0.0850767  
C372     C      0.356580000000     0.516750000000     0.514480000000    -0.00357179 
C373     C      0.016350000000     0.888160000000     0.514890000000     0.00181976 
C374     C      0.497370000000     0.904160000000     0.495230000000    -0.082031   
C375     C      0.478390000000     0.888160000000     0.975560000000    -0.00354991 
C376     C      0.478000000000     0.856570000000     0.975940000000    -0.00301122 
C377     C      0.497370000000     0.840570000000     0.495230000000    -0.0817674  
C378     C      0.016740000000     0.856570000000     0.514510000000    -0.000134514
C379     C      0.016360000000     0.606560000000     0.975570000000     0.00146199 
C380     C      0.997370000000     0.590560000000     0.995230000000    -0.0894188  
C381     C      0.478380000000     0.606560000000     0.514880000000    -0.00334593 
C382     C      0.477990000000     0.638150000000     0.514490000000    -0.0034716  
C383     C      0.997370000000     0.654150000000     0.995230000000    -0.0886873  
C384     C      0.016750000000     0.638150000000     0.975960000000     0.000666271
C385     C      0.937420000000     0.497360000000     0.995230000000     0.345866   
C386     C      0.557320000000     0.997360000000     0.995230000000     0.347089   
C387     C      0.997370000000     0.437410000000     0.995230000000     0.34709    
C388     C      0.497370000000     0.057310000000     0.995230000000     0.345392   
C389     C      0.557300000000     0.997360000000     0.245230000000     0.349627   
C390     C      0.937450000000     0.497360000000     0.245230000000     0.348529   
C391     C      0.497370000000     0.057280000000     0.245230000000     0.348101   
C392     C      0.997370000000     0.437430000000     0.245230000000     0.349555   
C393     C      0.997370000000     0.247360000000     0.435410000000     0.344265   
C394     C      0.997370000000     0.247360000000     0.055040000000     0.343876   
C395     C      0.997370000000     0.187410000000     0.495230000000     0.345394   
C396     C      0.997370000000     0.307310000000     0.995230000000     0.345712   
C397     C      0.997370000000     0.247360000000     0.185410000000     0.344322   
C398     C      0.997370000000     0.247360000000     0.305040000000     0.344389   
C399     C      0.997370000000     0.187400000000     0.245230000000     0.34542    
C400     C      0.997370000000     0.307310000000     0.245230000000     0.345384   
C401     C      0.747370000000     0.497360000000     0.055040000000     0.348025   
C402     C      0.747370000000     0.497360000000     0.435410000000     0.348416   
C403     C      0.807320000000     0.497360000000     0.995230000000     0.350074   
C404     C      0.687420000000     0.497360000000     0.495230000000     0.349478   
C405     C      0.747370000000     0.497360000000     0.305040000000     0.348559   
C406     C      0.747370000000     0.497360000000     0.185410000000     0.348556   
C407     C      0.807320000000     0.497360000000     0.245230000000     0.349919   
C408     C      0.687420000000     0.497360000000     0.245230000000     0.349863   
C409     C      0.747390000000     0.024710000000     0.385950000000    -0.00138892 
C410     C      0.747370000000     0.497360000000     0.402060000000    -0.0816823  
C411     C      0.747350000000     0.470010000000     0.385950000000    -0.00532418 
C412     C      0.747380000000     0.470010000000     0.354500000000    -0.00527479 
C413     C      0.747370000000     0.497360000000     0.338390000000    -0.0817537  
C414     C      0.747370000000     0.024710000000     0.354500000000    -0.00133996 
C415     C      0.747380000000     0.024710000000     0.135950000000    -0.00114543 
C416     C      0.747370000000     0.497360000000     0.152060000000    -0.0817465  
C417     C      0.747370000000     0.470010000000     0.135950000000    -0.00507943 
C418     C      0.747390000000     0.470010000000     0.104500000000    -0.00539307 
C419     C      0.747370000000     0.497360000000     0.088390000000    -0.0811024  
C420     C      0.747360000000     0.024710000000     0.104500000000    -0.00146196 
C421     C      0.024710000000     0.248230000000     0.385950000000    -0.00136034 
C422     C      0.997370000000     0.247360000000     0.402060000000    -0.0852974  
C423     C      0.970030000000     0.246490000000     0.385950000000    -0.00518086 
C424     C      0.970030000000     0.246490000000     0.354500000000    -0.0052004  
C425     C      0.997370000000     0.247360000000     0.338400000000    -0.0852412  
C426     C      0.024710000000     0.248230000000     0.354500000000    -0.00137379 
C427     C      0.970030000000     0.248230000000     0.104500000000    -0.00531434 
C428     C      0.997370000000     0.247360000000     0.088400000000    -0.0846024  
C429     C      0.524710000000     0.246480000000     0.104500000000    -0.00543317 
C430     C      0.524710000000     0.246480000000     0.135950000000    -0.00506911 
C431     C      0.997370000000     0.247360000000     0.152060000000    -0.0853341  
C432     C      0.970030000000     0.248230000000     0.135950000000    -0.00495432 
C433     C      0.606560000000     0.477780000000     0.264300000000    -0.00399723 
C434     C      0.590550000000     0.997360000000     0.245230000000    -0.0873342  
C435     C      0.606560000000     0.016930000000     0.226150000000     0.00103059 
C436     C      0.638150000000     0.017300000000     0.226540000000     0.000151796
C437     C      0.654160000000     0.997360000000     0.245230000000    -0.0855556  
C438     C      0.638150000000     0.477410000000     0.263920000000    -0.00345016 
C439     C      0.856600000000     0.017290000000     0.263930000000     5.26808e-05
C440     C      0.840590000000     0.497360000000     0.245230000000    -0.082257   
C441     C      0.856600000000     0.477420000000     0.226520000000    -0.00348729 
C442     C      0.888180000000     0.477790000000     0.226140000000    -0.00406192 
C443     C      0.904190000000     0.497360000000     0.245230000000    -0.0819479  
C444     C      0.888180000000     0.016920000000     0.264310000000     0.00100046 
C445     C      0.977820000000     0.388170000000     0.264320000000    -0.00301707 
C446     C      0.997370000000     0.404170000000     0.245230000000    -0.0871634  
C447     C      0.516930000000     0.388170000000     0.226130000000    -0.00399924 
C448     C      0.517300000000     0.356580000000     0.226510000000    -0.00342042 
C449     C      0.997370000000     0.340570000000     0.245230000000    -0.0854866  
C450     C      0.977450000000     0.356580000000     0.263940000000    -0.00378651 
C451     C      0.516930000000     0.106550000000     0.264320000000    -0.00413667 
C452     C      0.497370000000     0.090540000000     0.245230000000    -0.0810488  
C453     C      0.977820000000     0.106550000000     0.226130000000    -0.00321843 
C454     C      0.977450000000     0.138130000000     0.226520000000    -0.00340861 
C455     C      0.497370000000     0.154140000000     0.245230000000    -0.0823181  
C456     C      0.517300000000     0.138130000000     0.263940000000    -0.00311847 
C457     C      0.606570000000     0.478360000000     0.014870000000    -0.000736447
C458     C      0.590570000000     0.997360000000     0.495230000000    -0.0873316  
C459     C      0.606570000000     0.016360000000     0.475580000000     0.00184143 
C460     C      0.638160000000     0.016750000000     0.475960000000    -0.000126651
C461     C      0.654160000000     0.997360000000     0.495230000000    -0.0849274  
C462     C      0.638160000000     0.477970000000     0.014490000000    -0.000231458
C463     C      0.888180000000     0.016360000000     0.014870000000     0.00413804 
C464     C      0.904170000000     0.497360000000     0.995230000000    -0.0842443  
C465     C      0.888180000000     0.478360000000     0.475580000000    -0.00326484 
C466     C      0.856580000000     0.477970000000     0.475960000000    -0.00366931 
C467     C      0.840580000000     0.497360000000     0.995230000000    -0.085349   
C468     C      0.856580000000     0.016750000000     0.014480000000     0.00336666 
C469     C      0.516350000000     0.388160000000     0.014890000000    -0.000782107
C470     C      0.997370000000     0.404160000000     0.995230000000    -0.0895426  
C471     C      0.978400000000     0.388160000000     0.475560000000    -0.00223397 
C472     C      0.978000000000     0.356570000000     0.475940000000    -0.00408143 
C473     C      0.997370000000     0.340570000000     0.995230000000    -0.0885513  
C474     C      0.516740000000     0.356570000000     0.014510000000    -0.000199855
C475     C      0.516360000000     0.106560000000     0.475570000000    -0.00349373 
C476     C      0.497370000000     0.090560000000     0.495230000000    -0.0809886  
C477     C      0.978380000000     0.106560000000     0.014880000000    -9.44693e-05
C478     C      0.977990000000     0.138150000000     0.014490000000    -0.000152481
C479     C      0.497370000000     0.154150000000     0.495230000000    -0.0819297  
C480     C      0.516750000000     0.138150000000     0.475960000000    -0.00318976 
C481     C      0.937420000000     0.497360000000     0.495230000000     0.348873   
C482     C      0.557320000000     0.997360000000     0.495230000000     0.350102   
C483     C      0.997370000000     0.437410000000     0.495230000000     0.350105   
C484     C      0.497370000000     0.057310000000     0.495230000000     0.348141   
C485     C      0.557300000000     0.997360000000     0.745230000000     0.349635   
C486     C      0.937450000000     0.497360000000     0.745230000000     0.348536   
C487     C      0.497370000000     0.057280000000     0.745230000000     0.348107   
C488     C      0.997370000000     0.437430000000     0.745230000000     0.349568   
C489     C      0.997370000000     0.247360000000     0.935410000000     0.344049   
C490     C      0.997370000000     0.247360000000     0.555040000000     0.344307   
C491     C      0.997370000000     0.187410000000     0.995230000000     0.345982   
C492     C      0.997370000000     0.307310000000     0.495230000000     0.34512    
C493     C      0.997370000000     0.247360000000     0.685410000000     0.344278   
C494     C      0.997370000000     0.247360000000     0.805040000000     0.344396   
C495     C      0.997370000000     0.187400000000     0.745230000000     0.34542    
C496     C      0.997370000000     0.307310000000     0.745230000000     0.345382   
C497     C      0.747370000000     0.497360000000     0.555040000000     0.348387   
C498     C      0.747370000000     0.497360000000     0.935410000000     0.348265   
C499     C      0.807320000000     0.497360000000     0.495230000000     0.349494   
C500     C      0.687420000000     0.497360000000     0.995230000000     0.350061   
C501     C      0.747370000000     0.497360000000     0.805040000000     0.348565   
C502     C      0.747370000000     0.497360000000     0.685410000000     0.348522   
C503     C      0.807320000000     0.497360000000     0.745230000000     0.349922   
C504     C      0.687420000000     0.497360000000     0.745230000000     0.349866   
C505     C      0.747390000000     0.024710000000     0.885950000000    -0.00142149 
C506     C      0.747370000000     0.497360000000     0.902060000000    -0.0816793  
C507     C      0.747350000000     0.470010000000     0.885950000000    -0.00535373 
C508     C      0.747380000000     0.470010000000     0.854500000000    -0.00529135 
C509     C      0.747370000000     0.497360000000     0.838390000000    -0.0817678  
C510     C      0.747370000000     0.024710000000     0.854500000000    -0.00135694 
C511     C      0.747380000000     0.024710000000     0.635950000000    -0.00131351 
C512     C      0.747370000000     0.497360000000     0.652060000000    -0.0817471  
C513     C      0.747370000000     0.470010000000     0.635950000000    -0.0052525  
C514     C      0.747390000000     0.470010000000     0.604500000000    -0.0053623  
C515     C      0.747370000000     0.497360000000     0.588400000000    -0.081578   
C516     C      0.747360000000     0.024710000000     0.604500000000    -0.00141894 
C517     C      0.024710000000     0.248230000000     0.885950000000    -0.00139972 
C518     C      0.997370000000     0.247360000000     0.902060000000    -0.085277   
C519     C      0.970030000000     0.246490000000     0.885950000000    -0.00522277 
C520     C      0.970030000000     0.246490000000     0.854500000000    -0.00521181 
C521     C      0.997370000000     0.247360000000     0.838400000000    -0.0852568  
C522     C      0.024710000000     0.248230000000     0.854500000000    -0.00138708 
C523     C      0.970030000000     0.248230000000     0.604500000000    -0.00522917 
C524     C      0.997370000000     0.247360000000     0.588400000000    -0.0852013  
C525     C      0.524710000000     0.246480000000     0.604500000000    -0.00534777 
C526     C      0.524710000000     0.246480000000     0.635950000000    -0.00527117 
C527     C      0.997370000000     0.247360000000     0.652060000000    -0.0853193  
C528     C      0.970030000000     0.248230000000     0.635950000000    -0.00515567 
C529     C      0.606560000000     0.477780000000     0.764300000000    -0.00400702 
C530     C      0.590550000000     0.997360000000     0.745230000000    -0.0873548  
C531     C      0.606560000000     0.016930000000     0.726150000000     0.00101179 
C532     C      0.638150000000     0.017300000000     0.726540000000     0.000136115
C533     C      0.654160000000     0.997360000000     0.745230000000    -0.0855846  
C534     C      0.638150000000     0.477410000000     0.763920000000    -0.00345753 
C535     C      0.856600000000     0.017290000000     0.763930000000     4.7575e-05 
C536     C      0.840590000000     0.497360000000     0.745230000000    -0.0822838  
C537     C      0.856600000000     0.477420000000     0.726520000000    -0.00350588 
C538     C      0.888180000000     0.477790000000     0.726140000000    -0.00408442 
C539     C      0.904190000000     0.497360000000     0.745230000000    -0.0819652  
C540     C      0.888180000000     0.016920000000     0.764310000000     0.000993701
C541     C      0.977820000000     0.388170000000     0.764320000000    -0.00302191 
C542     C      0.997370000000     0.404170000000     0.745230000000    -0.0871984  
C543     C      0.516930000000     0.388170000000     0.726130000000    -0.0039928  
C544     C      0.517300000000     0.356580000000     0.726510000000    -0.00345559 
C545     C      0.997370000000     0.340570000000     0.745230000000    -0.0855109  
C546     C      0.977450000000     0.356580000000     0.763940000000    -0.00380142 
C547     C      0.516930000000     0.106550000000     0.764320000000    -0.00414924 
C548     C      0.497370000000     0.090540000000     0.745230000000    -0.081067   
C549     C      0.977820000000     0.106550000000     0.726130000000    -0.00324247 
C550     C      0.977450000000     0.138130000000     0.726520000000    -0.00342778 
C551     C      0.497370000000     0.154140000000     0.745230000000    -0.0823472  
C552     C      0.517300000000     0.138130000000     0.763940000000    -0.00312747 
C553     C      0.606570000000     0.478360000000     0.514870000000    -0.0031477  
C554     C      0.590570000000     0.997360000000     0.995230000000    -0.0895336  
C555     C      0.606570000000     0.016360000000     0.975580000000     0.00157716 
C556     C      0.638160000000     0.016750000000     0.975960000000     0.000515247
C557     C      0.654160000000     0.997360000000     0.995230000000    -0.0885155  
C558     C      0.638160000000     0.477970000000     0.514490000000    -0.0036769  
C559     C      0.888180000000     0.016360000000     0.514870000000     0.00171781 
C560     C      0.904170000000     0.497360000000     0.495230000000    -0.0820169  
C561     C      0.888180000000     0.478360000000     0.975580000000    -0.00351305 
C562     C      0.856580000000     0.477970000000     0.975960000000    -0.00302711 
C563     C      0.840580000000     0.497360000000     0.495230000000    -0.0817575  
C564     C      0.856580000000     0.016750000000     0.514480000000    -4.3947e-05 
C565     C      0.516350000000     0.388160000000     0.514890000000    -0.00319183 
C566     C      0.997370000000     0.404160000000     0.495230000000    -0.0873496  
C567     C      0.978400000000     0.388160000000     0.975560000000    -0.00249311 
C568     C      0.978000000000     0.356570000000     0.975940000000    -0.0034339  
C569     C      0.997370000000     0.340570000000     0.495230000000    -0.0849708  
C570     C      0.516740000000     0.356570000000     0.514510000000    -0.00364399 
C571     C      0.516360000000     0.106560000000     0.975570000000    -0.00369961 
C572     C      0.497370000000     0.090560000000     0.995230000000    -0.0833094  
C573     C      0.978380000000     0.106560000000     0.514880000000    -0.002544   
C574     C      0.977990000000     0.138150000000     0.514490000000    -0.00356273 
C575     C      0.497370000000     0.154150000000     0.995230000000    -0.0855072  
C576     C      0.516750000000     0.138150000000     0.975960000000    -0.00256759 
C577     C      0.937420000000     0.997360000000     0.995230000000     0.34671    
C578     C      0.557320000000     0.497360000000     0.995230000000     0.346254   
C579     C      0.997370000000     0.937410000000     0.995230000000     0.346873   
C580     C      0.497370000000     0.557310000000     0.995230000000     0.346065   
C581     C      0.557300000000     0.497360000000     0.245230000000     0.348772   
C582     C      0.937450000000     0.997360000000     0.245230000000     0.349381   
C583     C      0.497370000000     0.557280000000     0.245230000000     0.348788   
C584     C      0.997370000000     0.937430000000     0.245230000000     0.349271   
C585     C      0.997370000000     0.747360000000     0.435410000000     0.344254   
C586     C      0.997370000000     0.747360000000     0.055040000000     0.343865   
C587     C      0.997370000000     0.687410000000     0.495230000000     0.345325   
C588     C      0.997370000000     0.807310000000     0.995230000000     0.345716   
C589     C      0.997370000000     0.747360000000     0.185410000000     0.344322   
C590     C      0.997370000000     0.747360000000     0.305040000000     0.344389   
C591     C      0.997370000000     0.687400000000     0.245230000000     0.345213   
C592     C      0.997370000000     0.807310000000     0.245230000000     0.345398   
C593     C      0.747370000000     0.997360000000     0.055040000000     0.343761   
C594     C      0.747370000000     0.997360000000     0.435410000000     0.344139   
C595     C      0.807320000000     0.997360000000     0.995230000000     0.345676   
C596     C      0.687420000000     0.997360000000     0.495230000000     0.345074   
C597     C      0.747370000000     0.997360000000     0.305040000000     0.344285   
C598     C      0.747370000000     0.997360000000     0.185410000000     0.344283   
C599     C      0.807320000000     0.997360000000     0.245230000000     0.345506   
C600     C      0.687420000000     0.997360000000     0.245230000000     0.345453   
C601     C      0.747390000000     0.524710000000     0.385950000000    -0.00532163 
C602     C      0.747370000000     0.997360000000     0.402060000000    -0.0852609  
C603     C      0.747350000000     0.970010000000     0.385950000000    -0.0052002  
C604     C      0.747380000000     0.970010000000     0.354500000000    -0.00515071 
C605     C      0.747370000000     0.997360000000     0.338390000000    -0.0853318  
C606     C      0.747370000000     0.524710000000     0.354500000000    -0.00527176 
C607     C      0.747380000000     0.524710000000     0.135950000000    -0.00507237 
C608     C      0.747370000000     0.997360000000     0.152060000000    -0.0853196  
C609     C      0.747370000000     0.970010000000     0.135950000000    -0.00495577 
C610     C      0.747390000000     0.970010000000     0.104500000000    -0.00526916 
C611     C      0.747370000000     0.997360000000     0.088390000000    -0.0846764  
C612     C      0.747360000000     0.524710000000     0.104500000000    -0.00538627 
C613     C      0.024710000000     0.748230000000     0.385950000000    -0.00136959 
C614     C      0.997370000000     0.747360000000     0.402060000000    -0.0853252  
C615     C      0.970030000000     0.746490000000     0.385950000000    -0.00520156 
C616     C      0.970030000000     0.746490000000     0.354500000000    -0.00521837 
C617     C      0.997370000000     0.747360000000     0.338400000000    -0.0852728  
C618     C      0.024710000000     0.748230000000     0.354500000000    -0.00138044 
C619     C      0.970030000000     0.748230000000     0.104500000000    -0.00533232 
C620     C      0.997370000000     0.747360000000     0.088400000000    -0.0846293  
C621     C      0.524710000000     0.746480000000     0.104500000000    -0.00545423 
C622     C      0.524710000000     0.746480000000     0.135950000000    -0.00508711 
C623     C      0.997370000000     0.747360000000     0.152060000000    -0.0853656  
C624     C      0.970030000000     0.748230000000     0.135950000000    -0.00496939 
C625     C      0.606560000000     0.977790000000     0.264300000000    -0.00299864 
C626     C      0.590550000000     0.497360000000     0.245230000000    -0.0820626  
C627     C      0.606560000000     0.516930000000     0.226150000000    -0.00398293 
C628     C      0.638150000000     0.517300000000     0.226540000000    -0.00337704 
C629     C      0.654160000000     0.497360000000     0.245230000000    -0.0823363  
C630     C      0.638150000000     0.977410000000     0.263920000000    -0.00386936 
C631     C      0.856600000000     0.517290000000     0.263930000000    -0.00345445 
C632     C      0.840590000000     0.997360000000     0.245230000000    -0.0854783  
C633     C      0.856600000000     0.977420000000     0.226520000000    -0.00388003 
C634     C      0.888180000000     0.977790000000     0.226140000000    -0.00311742 
C635     C      0.904190000000     0.997360000000     0.245230000000    -0.0872142  
C636     C      0.888180000000     0.516920000000     0.264310000000    -0.00406883 
C637     C      0.977820000000     0.888170000000     0.264320000000    -0.00305506 
C638     C      0.997370000000     0.904170000000     0.245230000000    -0.087122   
C639     C      0.516930000000     0.888170000000     0.226130000000    -0.00404231 
C640     C      0.517300000000     0.856580000000     0.226510000000    -0.00341968 
C641     C      0.997370000000     0.840570000000     0.245230000000    -0.0854981  
C642     C      0.977450000000     0.856580000000     0.263940000000    -0.00378681 
C643     C      0.516930000000     0.606540000000     0.264320000000    -0.00397643 
C644     C      0.497370000000     0.590540000000     0.245230000000    -0.0819111  
C645     C      0.977820000000     0.606540000000     0.226130000000    -0.00305012 
C646     C      0.977450000000     0.638130000000     0.226520000000    -0.00372046 
C647     C      0.497370000000     0.654140000000     0.245230000000    -0.0822318  
C648     C      0.517300000000     0.638130000000     0.263940000000    -0.00342797 
C649     C      0.606570000000     0.978360000000     0.014870000000     0.000179016
C650     C      0.590570000000     0.497360000000     0.495230000000    -0.0821153  
C651     C      0.606570000000     0.516350000000     0.475580000000    -0.00313091 
C652     C      0.638160000000     0.516750000000     0.475960000000    -0.00369762 
C653     C      0.654160000000     0.497360000000     0.495230000000    -0.0816778  
C654     C      0.638160000000     0.977970000000     0.014490000000    -0.000609792
C655     C      0.888180000000     0.516360000000     0.014870000000    -0.000871326
C656     C      0.904170000000     0.997360000000     0.995230000000    -0.0894738  
C657     C      0.888180000000     0.978360000000     0.475580000000    -0.00233051 
C658     C      0.856580000000     0.977970000000     0.475960000000    -0.00405202 
C659     C      0.840580000000     0.997360000000     0.995230000000    -0.0885778  
C660     C      0.856580000000     0.516750000000     0.014480000000    -0.000179755
C661     C      0.516350000000     0.888160000000     0.014890000000    -0.000828077
C662     C      0.997370000000     0.904160000000     0.995230000000    -0.0895125  
C663     C      0.978400000000     0.888160000000     0.475560000000    -0.00227795 
C664     C      0.978000000000     0.856570000000     0.475940000000    -0.00408257 
C665     C      0.997370000000     0.840570000000     0.995230000000    -0.0885611  
C666     C      0.516740000000     0.856570000000     0.014510000000    -0.000200411
C667     C      0.516360000000     0.606560000000     0.475570000000    -0.00335568 
C668     C      0.497370000000     0.590560000000     0.495230000000    -0.0818562  
C669     C      0.978380000000     0.606560000000     0.014880000000     5.65155e-05
C670     C      0.977990000000     0.638150000000     0.014490000000    -0.00043525 
C671     C      0.497370000000     0.654150000000     0.495230000000    -0.0818818  
C672     C      0.516750000000     0.638150000000     0.475960000000    -0.00347746 
C673     C      0.937420000000     0.997360000000     0.495230000000     0.349713   
C674     C      0.557320000000     0.497360000000     0.495230000000     0.349272   
C675     C      0.997370000000     0.937410000000     0.495230000000     0.349883   
C676     C      0.497370000000     0.557310000000     0.495230000000     0.348824   
C677     C      0.557300000000     0.497360000000     0.745230000000     0.348779   
C678     C      0.937450000000     0.997360000000     0.745230000000     0.349389   
C679     C      0.497370000000     0.557280000000     0.745230000000     0.348794   
C680     C      0.997370000000     0.937430000000     0.745230000000     0.349284   
C681     C      0.997370000000     0.747360000000     0.935410000000     0.344039   
C682     C      0.997370000000     0.747360000000     0.555040000000     0.344296   
C683     C      0.997370000000     0.687410000000     0.995230000000     0.345915   
C684     C      0.997370000000     0.807310000000     0.495230000000     0.345124   
C685     C      0.997370000000     0.747360000000     0.685410000000     0.344278   
C686     C      0.997370000000     0.747360000000     0.805040000000     0.344395   
C687     C      0.997370000000     0.687400000000     0.745230000000     0.345213   
C688     C      0.997370000000     0.807310000000     0.745230000000     0.345396   
C689     C      0.747370000000     0.997360000000     0.555040000000     0.344111   
C690     C      0.747370000000     0.997360000000     0.935410000000     0.343995   
C691     C      0.807320000000     0.997360000000     0.495230000000     0.34509    
C692     C      0.687420000000     0.997360000000     0.995230000000     0.345665   
C693     C      0.747370000000     0.997360000000     0.805040000000     0.34429    
C694     C      0.747370000000     0.997360000000     0.685410000000     0.344246   
C695     C      0.807320000000     0.997360000000     0.745230000000     0.345507   
C696     C      0.687420000000     0.997360000000     0.745230000000     0.345454   
C697     C      0.747390000000     0.524710000000     0.885950000000    -0.00535117 
C698     C      0.747370000000     0.997360000000     0.902060000000    -0.0852554  
C699     C      0.747350000000     0.970010000000     0.885950000000    -0.00522978 
C700     C      0.747380000000     0.970010000000     0.854500000000    -0.00516725 
C701     C      0.747370000000     0.997360000000     0.838390000000    -0.0853439  
C702     C      0.747370000000     0.524710000000     0.854500000000    -0.00528832 
C703     C      0.747380000000     0.524710000000     0.635950000000    -0.00524545 
C704     C      0.747370000000     0.997360000000     0.652060000000    -0.085325   
C705     C      0.747370000000     0.970010000000     0.635950000000    -0.00512979 
C706     C      0.747390000000     0.970010000000     0.604500000000    -0.00523527 
C707     C      0.747370000000     0.997360000000     0.588400000000    -0.085161   
C708     C      0.747360000000     0.524710000000     0.604500000000    -0.00535549 
C709     C      0.024710000000     0.748230000000     0.885950000000    -0.00140901 
C710     C      0.997370000000     0.747360000000     0.902060000000    -0.0853046  
C711     C      0.970030000000     0.746490000000     0.885950000000    -0.0052435  
C712     C      0.970030000000     0.746490000000     0.854500000000    -0.00522976 
C713     C      0.997370000000     0.747360000000     0.838400000000    -0.0852884  
C714     C      0.024710000000     0.748230000000     0.854500000000    -0.0013937  
C715     C      0.970030000000     0.748230000000     0.604500000000    -0.00524708 
C716     C      0.997370000000     0.747360000000     0.588400000000    -0.0852289  
C717     C      0.524710000000     0.746480000000     0.604500000000    -0.00536879 
C718     C      0.524710000000     0.746480000000     0.635950000000    -0.00528947 
C719     C      0.997370000000     0.747360000000     0.652060000000    -0.0853508  
C720     C      0.970030000000     0.748230000000     0.635950000000    -0.005171   
C721     C      0.606560000000     0.977790000000     0.764300000000    -0.00300755 
C722     C      0.590550000000     0.497360000000     0.745230000000    -0.0820798  
C723     C      0.606560000000     0.516930000000     0.726150000000    -0.00400552 
C724     C      0.638150000000     0.517300000000     0.726540000000    -0.00339556 
C725     C      0.654160000000     0.497360000000     0.745230000000    -0.0823631  
C726     C      0.638150000000     0.977410000000     0.763920000000    -0.00387662 
C727     C      0.856600000000     0.517290000000     0.763930000000    -0.00346183 
C728     C      0.840590000000     0.997360000000     0.745230000000    -0.0855063  
C729     C      0.856600000000     0.977420000000     0.726520000000    -0.00389892 
C730     C      0.888180000000     0.977790000000     0.726140000000    -0.00313954 
C731     C      0.904190000000     0.997360000000     0.745230000000    -0.0872337  
C732     C      0.888180000000     0.516920000000     0.764310000000    -0.00407861 
C733     C      0.977820000000     0.888170000000     0.764320000000    -0.00305993 
C734     C      0.997370000000     0.904170000000     0.745230000000    -0.087157   
C735     C      0.516930000000     0.888170000000     0.726130000000    -0.00403594 
C736     C      0.517300000000     0.856580000000     0.726510000000    -0.00345486 
C737     C      0.997370000000     0.840570000000     0.745230000000    -0.0855224  
C738     C      0.977450000000     0.856580000000     0.763940000000    -0.00380171 
C739     C      0.516930000000     0.606540000000     0.764320000000    -0.00398885 
C740     C      0.497370000000     0.590540000000     0.745230000000    -0.0819299  
C741     C      0.977820000000     0.606540000000     0.726130000000    -0.00307409 
C742     C      0.977450000000     0.638130000000     0.726520000000    -0.00373995 
C743     C      0.497370000000     0.654140000000     0.745230000000    -0.0822609  
C744     C      0.517300000000     0.638130000000     0.763940000000    -0.00343718 
C745     C      0.606570000000     0.978360000000     0.514870000000    -0.00222738 
C746     C      0.590570000000     0.497360000000     0.995230000000    -0.0843298  
C747     C      0.606570000000     0.516350000000     0.975580000000    -0.00338708 
C748     C      0.638160000000     0.516750000000     0.975960000000    -0.00304953 
C749     C      0.654160000000     0.497360000000     0.995230000000    -0.0852769  
C750     C      0.638160000000     0.977970000000     0.514490000000    -0.00405125 
C751     C      0.888180000000     0.516360000000     0.514870000000    -0.00331285 
C752     C      0.904170000000     0.997360000000     0.495230000000    -0.0872671  
C753     C      0.888180000000     0.978360000000     0.975580000000    -0.00258116 
C754     C      0.856580000000     0.977970000000     0.975960000000    -0.00341129 
C755     C      0.840580000000     0.997360000000     0.495230000000    -0.0850056  
C756     C      0.856580000000     0.516750000000     0.514480000000    -0.00361025 
C757     C      0.516350000000     0.888160000000     0.514890000000    -0.00323648 
C758     C      0.997370000000     0.904160000000     0.495230000000    -0.0873209  
C759     C      0.978400000000     0.888160000000     0.975560000000    -0.00253685 
C760     C      0.978000000000     0.856570000000     0.975940000000    -0.00343479 
C761     C      0.997370000000     0.840570000000     0.495230000000    -0.0849816  
C762     C      0.516740000000     0.856570000000     0.514510000000    -0.00364523 
C763     C      0.516360000000     0.606560000000     0.975570000000    -0.0035616  
C764     C      0.497370000000     0.590560000000     0.995230000000    -0.0841811  
C765     C      0.978380000000     0.606560000000     0.514880000000    -0.00240066 
C766     C      0.977990000000     0.638150000000     0.514490000000    -0.00385219 
C767     C      0.497370000000     0.654150000000     0.995230000000    -0.0854654  
C768     C      0.516750000000     0.638150000000     0.975960000000    -0.00285399 
Cu1      Cu     0.997370000000     0.497360000000     0.467300000000     0.837727   
Cu2      Cu     0.497370000000     0.997360000000     0.023150000000     0.839873   
Cu3      Cu     0.497370000000     0.997360000000     0.217350000000     0.836964   
Cu4      Cu     0.997370000000     0.497360000000     0.273100000000     0.836769   
Cu5      Cu     0.025370000000     0.247360000000     0.995230000000     0.841061   
Cu6      Cu     0.469370000000     0.247360000000     0.495230000000     0.84056    
Cu7      Cu     0.025370000000     0.247360000000     0.245230000000     0.843628   
Cu8      Cu     0.469370000000     0.247360000000     0.245230000000     0.840724   
Cu9      Cu     0.247370000000     0.469360000000     0.495230000000     0.840422   
Cu10     Cu     0.247370000000     0.025360000000     0.995230000000     0.840817   
Cu11     Cu     0.247370000000     0.469360000000     0.245230000000     0.840617   
Cu12     Cu     0.247370000000     0.025360000000     0.245230000000     0.843552   
Cu13     Cu     0.997370000000     0.497360000000     0.967300000000     0.834648   
Cu14     Cu     0.497370000000     0.997360000000     0.523150000000     0.837836   
Cu15     Cu     0.497370000000     0.997360000000     0.717350000000     0.836871   
Cu16     Cu     0.997370000000     0.497360000000     0.773100000000     0.836804   
Cu17     Cu     0.025370000000     0.247360000000     0.495230000000     0.84362    
Cu18     Cu     0.469370000000     0.247360000000     0.995230000000     0.838148   
Cu19     Cu     0.025370000000     0.247360000000     0.745230000000     0.843578   
Cu20     Cu     0.469370000000     0.247360000000     0.745230000000     0.840671   
Cu21     Cu     0.247370000000     0.469360000000     0.995230000000     0.837883   
Cu22     Cu     0.247370000000     0.025360000000     0.495230000000     0.843354   
Cu23     Cu     0.247370000000     0.469360000000     0.745230000000     0.840566   
Cu24     Cu     0.247370000000     0.025360000000     0.745230000000     0.843503   
Cu25     Cu     0.997370000000     0.997360000000     0.467300000000     0.834042   
Cu26     Cu     0.497370000000     0.497360000000     0.023150000000     0.843554   
Cu27     Cu     0.497370000000     0.497360000000     0.217350000000     0.840513   
Cu28     Cu     0.997370000000     0.997360000000     0.273100000000     0.833072   
Cu29     Cu     0.025370000000     0.747360000000     0.995230000000     0.84106    
Cu30     Cu     0.469370000000     0.747360000000     0.495230000000     0.840552   
Cu31     Cu     0.025370000000     0.747360000000     0.245230000000     0.84374    
Cu32     Cu     0.469370000000     0.747360000000     0.245230000000     0.840829   
Cu33     Cu     0.247370000000     0.969360000000     0.495230000000     0.835921   
Cu34     Cu     0.247370000000     0.525360000000     0.995230000000     0.83792    
Cu35     Cu     0.247370000000     0.969360000000     0.245230000000     0.83612    
Cu36     Cu     0.247370000000     0.525360000000     0.245230000000     0.840666   
Cu37     Cu     0.997370000000     0.997360000000     0.967300000000     0.830975   
Cu38     Cu     0.497370000000     0.497360000000     0.523150000000     0.841524   
Cu39     Cu     0.497370000000     0.497360000000     0.717350000000     0.840422   
Cu40     Cu     0.997370000000     0.997360000000     0.773100000000     0.833108   
Cu41     Cu     0.025370000000     0.747360000000     0.495230000000     0.84362    
Cu42     Cu     0.469370000000     0.747360000000     0.995230000000     0.838139   
Cu43     Cu     0.025370000000     0.747360000000     0.745230000000     0.84369    
Cu44     Cu     0.469370000000     0.747360000000     0.745230000000     0.840776   
Cu45     Cu     0.247370000000     0.969360000000     0.995230000000     0.833395   
Cu46     Cu     0.247370000000     0.525360000000     0.495230000000     0.840459   
Cu47     Cu     0.247370000000     0.969360000000     0.745230000000     0.836066   
Cu48     Cu     0.247370000000     0.525360000000     0.745230000000     0.840614   
Cu49     Cu     0.497370000000     0.497360000000     0.467300000000     0.84141    
Cu50     Cu     0.997370000000     0.997360000000     0.023150000000     0.836197   
Cu51     Cu     0.997370000000     0.997360000000     0.217350000000     0.83328    
Cu52     Cu     0.497370000000     0.497360000000     0.273100000000     0.840447   
Cu53     Cu     0.525370000000     0.247360000000     0.995230000000     0.838163   
Cu54     Cu     0.969370000000     0.247360000000     0.495230000000     0.836056   
Cu55     Cu     0.525370000000     0.247360000000     0.245230000000     0.840739   
Cu56     Cu     0.969370000000     0.247360000000     0.245230000000     0.836226   
Cu57     Cu     0.747370000000     0.469360000000     0.495230000000     0.840417   
Cu58     Cu     0.747370000000     0.025360000000     0.995230000000     0.840819   
Cu59     Cu     0.747370000000     0.469360000000     0.245230000000     0.840614   
Cu60     Cu     0.747370000000     0.025360000000     0.245230000000     0.843556   
Cu61     Cu     0.497370000000     0.497360000000     0.967300000000     0.838319   
Cu62     Cu     0.997370000000     0.997360000000     0.523150000000     0.834152   
Cu63     Cu     0.997370000000     0.997360000000     0.717350000000     0.833183   
Cu64     Cu     0.497370000000     0.497360000000     0.773100000000     0.840482   
Cu65     Cu     0.525370000000     0.247360000000     0.495230000000     0.840725   
Cu66     Cu     0.969370000000     0.247360000000     0.995230000000     0.833657   
Cu67     Cu     0.525370000000     0.247360000000     0.745230000000     0.840686   
Cu68     Cu     0.969370000000     0.247360000000     0.745230000000     0.836171   
Cu69     Cu     0.747370000000     0.469360000000     0.995230000000     0.837877   
Cu70     Cu     0.747370000000     0.025360000000     0.495230000000     0.843356   
Cu71     Cu     0.747370000000     0.469360000000     0.745230000000     0.840562   
Cu72     Cu     0.747370000000     0.025360000000     0.745230000000     0.843507   
Cu73     Cu     0.497370000000     0.997360000000     0.467300000000     0.837722   
Cu74     Cu     0.997370000000     0.497360000000     0.023150000000     0.839876   
Cu75     Cu     0.997370000000     0.497360000000     0.217350000000     0.836826   
Cu76     Cu     0.497370000000     0.997360000000     0.273100000000     0.836748   
Cu77     Cu     0.525370000000     0.747360000000     0.995230000000     0.838154   
Cu78     Cu     0.969370000000     0.747360000000     0.495230000000     0.836039   
Cu79     Cu     0.525370000000     0.747360000000     0.245230000000     0.840843   
Cu80     Cu     0.969370000000     0.747360000000     0.245230000000     0.836321   
Cu81     Cu     0.747370000000     0.969360000000     0.495230000000     0.835906   
Cu82     Cu     0.747370000000     0.525360000000     0.995230000000     0.837915   
Cu83     Cu     0.747370000000     0.969360000000     0.245230000000     0.836107   
Cu84     Cu     0.747370000000     0.525360000000     0.245230000000     0.840663   
Cu85     Cu     0.497370000000     0.997360000000     0.967300000000     0.834643   
Cu86     Cu     0.997370000000     0.497360000000     0.523150000000     0.837838   
Cu87     Cu     0.997370000000     0.497360000000     0.717350000000     0.836733   
Cu88     Cu     0.497370000000     0.997360000000     0.773100000000     0.836784   
Cu89     Cu     0.525370000000     0.747360000000     0.495230000000     0.840717   
Cu90     Cu     0.969370000000     0.747360000000     0.995230000000     0.833639   
Cu91     Cu     0.525370000000     0.747360000000     0.745230000000     0.840791   
Cu92     Cu     0.969370000000     0.747360000000     0.745230000000     0.836266   
Cu93     Cu     0.747370000000     0.969360000000     0.995230000000     0.83338    
Cu94     Cu     0.747370000000     0.525360000000     0.495230000000     0.840455   
Cu95     Cu     0.747370000000     0.969360000000     0.745230000000     0.836053   
Cu96     Cu     0.747370000000     0.525360000000     0.745230000000     0.840611   
H1       H      0.247390000000     0.046210000000     0.397600000000     0.0446241  
H2       H      0.247350000000     0.448510000000     0.397600000000     0.0449107  
H3       H      0.247370000000     0.448510000000     0.342850000000     0.0448808  
H4       H      0.247380000000     0.046210000000     0.342850000000     0.0445958  
H5       H      0.247370000000     0.046210000000     0.147600000000     0.0447121  
H6       H      0.247380000000     0.448510000000     0.147600000000     0.0449834  
H7       H      0.247390000000     0.448510000000     0.092850000000     0.0453035  
H8       H      0.247360000000     0.046210000000     0.092850000000     0.0450361  
H9       H      0.546200000000     0.248910000000     0.397600000000     0.0449429  
H10      H      0.448550000000     0.245800000000     0.397600000000     0.044953   
H11      H      0.448550000000     0.245800000000     0.342850000000     0.0449407  
H12      H      0.546200000000     0.248910000000     0.342850000000     0.0449382  
H13      H      0.448550000000     0.248910000000     0.092850000000     0.0453609  
H14      H      0.046200000000     0.245800000000     0.092850000000     0.0450873  
H15      H      0.046200000000     0.245800000000     0.147600000000     0.0447483  
H16      H      0.448550000000     0.248910000000     0.147600000000     0.0450225  
H17      H      0.094630000000     0.462420000000     0.279110000000     0.0430357  
H18      H      0.094630000000     0.032290000000     0.211340000000     0.0431447  
H19      H      0.150080000000     0.032790000000     0.211850000000     0.0423594  
H20      H      0.150080000000     0.461930000000     0.278600000000     0.0421892  
H21      H      0.344670000000     0.032770000000     0.278620000000     0.0421685  
H22      H      0.344670000000     0.461940000000     0.211840000000     0.0421363  
H23      H      0.400110000000     0.462440000000     0.211320000000     0.0425053  
H24      H      0.400110000000     0.032280000000     0.279130000000     0.0424496  
H25      H      0.462470000000     0.400100000000     0.279150000000     0.0421949  
H26      H      0.032270000000     0.400100000000     0.211310000000     0.0423009  
H27      H      0.032770000000     0.344650000000     0.211820000000     0.0420782  
H28      H      0.461980000000     0.344650000000     0.278640000000     0.0419034  
H29      H      0.032280000000     0.094620000000     0.279140000000     0.0428227  
H30      H      0.462470000000     0.094620000000     0.211310000000     0.0428745  
H31      H      0.461970000000     0.150060000000     0.211820000000     0.0420621  
H32      H      0.032770000000     0.150060000000     0.278630000000     0.0421352  
H33      H      0.094630000000     0.463450000000     0.030130000000     0.0415125  
H34      H      0.094630000000     0.031270000000     0.460330000000     0.04151    
H35      H      0.150090000000     0.031800000000     0.460840000000     0.041969   
H36      H      0.150090000000     0.462920000000     0.029610000000     0.0418444  
H37      H      0.400120000000     0.031270000000     0.030120000000     0.0410198  
H38      H      0.400120000000     0.463440000000     0.460330000000     0.0409218  
H39      H      0.344650000000     0.462910000000     0.460850000000     0.0417133  
H40      H      0.344650000000     0.031810000000     0.029600000000     0.0418352  
H41      H      0.031250000000     0.400100000000     0.030160000000     0.0409547  
H42      H      0.463500000000     0.400100000000     0.460300000000     0.0409183  
H43      H      0.462970000000     0.344640000000     0.460810000000     0.0416771  
H44      H      0.031780000000     0.344640000000     0.029640000000     0.041799   
H45      H      0.031270000000     0.094620000000     0.460320000000     0.0415082  
H46      H      0.463470000000     0.094620000000     0.030130000000     0.0415279  
H47      H      0.462940000000     0.150080000000     0.029620000000     0.0417603  
H48      H      0.031800000000     0.150080000000     0.460830000000     0.0418668  
H49      H      0.247390000000     0.046210000000     0.897600000000     0.0445195  
H50      H      0.247350000000     0.448510000000     0.897600000000     0.0448057  
H51      H      0.247370000000     0.448510000000     0.842850000000     0.0448307  
H52      H      0.247380000000     0.046210000000     0.842850000000     0.0445457  
H53      H      0.247370000000     0.046210000000     0.647600000000     0.0445984  
H54      H      0.247380000000     0.448510000000     0.647600000000     0.0448694  
H55      H      0.247390000000     0.448510000000     0.592850000000     0.0449123  
H56      H      0.247360000000     0.046210000000     0.592850000000     0.0446445  
H57      H      0.546200000000     0.248910000000     0.897600000000     0.0448393  
H58      H      0.448550000000     0.245800000000     0.897600000000     0.044843   
H59      H      0.448550000000     0.245800000000     0.842850000000     0.0448888  
H60      H      0.546200000000     0.248910000000     0.842850000000     0.0448869  
H61      H      0.448550000000     0.248910000000     0.592850000000     0.0449581  
H62      H      0.046200000000     0.245800000000     0.592850000000     0.0446843  
H63      H      0.046200000000     0.245800000000     0.647600000000     0.0446411  
H64      H      0.448550000000     0.248910000000     0.647600000000     0.0449156  
H65      H      0.094630000000     0.462420000000     0.779110000000     0.0430156  
H66      H      0.094630000000     0.032290000000     0.711340000000     0.0430783  
H67      H      0.150080000000     0.032790000000     0.711850000000     0.0422836  
H68      H      0.150080000000     0.461930000000     0.778600000000     0.0421595  
H69      H      0.344670000000     0.032770000000     0.778620000000     0.0421386  
H70      H      0.344670000000     0.461940000000     0.711840000000     0.0420597  
H71      H      0.400110000000     0.462440000000     0.711320000000     0.0424372  
H72      H      0.400110000000     0.032280000000     0.779130000000     0.042429   
H73      H      0.462470000000     0.400100000000     0.779150000000     0.0421775  
H74      H      0.032270000000     0.400100000000     0.711300000000     0.0422329  
H75      H      0.032770000000     0.344650000000     0.711820000000     0.0420146  
H76      H      0.461980000000     0.344650000000     0.778640000000     0.0418792  
H77      H      0.032280000000     0.094620000000     0.779140000000     0.0428071  
H78      H      0.462470000000     0.094620000000     0.711310000000     0.0428184  
H79      H      0.461970000000     0.150060000000     0.711820000000     0.0419949  
H80      H      0.032770000000     0.150060000000     0.778630000000     0.0421094  
H81      H      0.094630000000     0.463450000000     0.530130000000     0.041467   
H82      H      0.094630000000     0.031270000000     0.960330000000     0.0414189  
H83      H      0.150090000000     0.031800000000     0.960840000000     0.041627   
H84      H      0.150090000000     0.462920000000     0.529610000000     0.0418345  
H85      H      0.400120000000     0.031270000000     0.530110000000     0.0409856  
H86      H      0.400120000000     0.463440000000     0.960330000000     0.0408282  
H87      H      0.344650000000     0.462910000000     0.960850000000     0.0413715  
H88      H      0.344650000000     0.031810000000     0.529600000000     0.0418219  
H89      H      0.031250000000     0.400100000000     0.530160000000     0.0409082  
H90      H      0.463500000000     0.400100000000     0.960300000000     0.0408273  
H91      H      0.462970000000     0.344640000000     0.960810000000     0.0413338  
H92      H      0.031780000000     0.344640000000     0.529640000000     0.0417897  
H93      H      0.031270000000     0.094620000000     0.960320000000     0.0414018  
H94      H      0.463470000000     0.094620000000     0.530130000000     0.0414991  
H95      H      0.462940000000     0.150080000000     0.529620000000     0.0417451  
H96      H      0.031800000000     0.150080000000     0.960830000000     0.041531   
H97      H      0.247390000000     0.546210000000     0.397600000000     0.0449154  
H98      H      0.247350000000     0.948510000000     0.397600000000     0.0447656  
H99      H      0.247370000000     0.948510000000     0.342850000000     0.044736   
H100     H      0.247380000000     0.546210000000     0.342850000000     0.0448874  
H101     H      0.247370000000     0.546210000000     0.147600000000     0.0450038  
H102     H      0.247380000000     0.948510000000     0.147600000000     0.0448389  
H103     H      0.247390000000     0.948510000000     0.092850000000     0.0451585  
H104     H      0.247360000000     0.546210000000     0.092850000000     0.045328   
H105     H      0.546200000000     0.748910000000     0.397600000000     0.0449168  
H106     H      0.448550000000     0.745800000000     0.397600000000     0.0449199  
H107     H      0.448550000000     0.745800000000     0.342850000000     0.0449076  
H108     H      0.546200000000     0.748910000000     0.342850000000     0.0449112  
H109     H      0.448550000000     0.748910000000     0.092850000000     0.0453353  
H110     H      0.046200000000     0.745800000000     0.092850000000     0.0450544  
H111     H      0.046200000000     0.745800000000     0.147600000000     0.044715   
H112     H      0.448550000000     0.748910000000     0.147600000000     0.0449956  
H113     H      0.094630000000     0.962420000000     0.279110000000     0.0425224  
H114     H      0.094630000000     0.532300000000     0.211340000000     0.0431046  
H115     H      0.150080000000     0.532790000000     0.211850000000     0.0422476  
H116     H      0.150080000000     0.961930000000     0.278600000000     0.0420381  
H117     H      0.344670000000     0.532770000000     0.278620000000     0.0420494  
H118     H      0.344670000000     0.961940000000     0.211840000000     0.0419792  
H119     H      0.400110000000     0.962440000000     0.211320000000     0.0420079  
H120     H      0.400110000000     0.532270000000     0.279130000000     0.0424361  
H121     H      0.462470000000     0.900100000000     0.279150000000     0.0421144  
H122     H      0.032270000000     0.900100000000     0.211310000000     0.0422168  
H123     H      0.032770000000     0.844650000000     0.211820000000     0.042057   
H124     H      0.461980000000     0.844650000000     0.278640000000     0.0418825  
H125     H      0.032280000000     0.594620000000     0.279140000000     0.0422332  
H126     H      0.462470000000     0.594620000000     0.211310000000     0.0422869  
H127     H      0.461970000000     0.650060000000     0.211820000000     0.041966   
H128     H      0.032770000000     0.650060000000     0.278630000000     0.0420399  
H129     H      0.094630000000     0.963450000000     0.030130000000     0.041022   
H130     H      0.094630000000     0.531270000000     0.460330000000     0.0414652  
H131     H      0.150090000000     0.531800000000     0.460840000000     0.0418517  
H132     H      0.150090000000     0.962920000000     0.029610000000     0.0416742  
H133     H      0.400120000000     0.531270000000     0.030120000000     0.0409937  
H134     H      0.400120000000     0.963440000000     0.460330000000     0.0404249  
H135     H      0.344650000000     0.962910000000     0.460850000000     0.0415445  
H136     H      0.344650000000     0.531800000000     0.029600000000     0.0417204  
H137     H      0.031250000000     0.900100000000     0.030160000000     0.0408976  
H138     H      0.463500000000     0.900100000000     0.460300000000     0.0408608  
H139     H      0.462970000000     0.844640000000     0.460810000000     0.0416599  
H140     H      0.031780000000     0.844640000000     0.029640000000     0.0417822  
H141     H      0.031270000000     0.594620000000     0.460320000000     0.0409648  
H142     H      0.463470000000     0.594620000000     0.030130000000     0.0409844  
H143     H      0.462940000000     0.650080000000     0.029620000000     0.0416692  
H144     H      0.031800000000     0.650080000000     0.460830000000     0.0417762  
H145     H      0.247390000000     0.546210000000     0.897600000000     0.0448104  
H146     H      0.247350000000     0.948510000000     0.897600000000     0.0446608  
H147     H      0.247370000000     0.948510000000     0.842850000000     0.044686   
H148     H      0.247380000000     0.546210000000     0.842850000000     0.0448373  
H149     H      0.247370000000     0.546210000000     0.647600000000     0.0448898  
H150     H      0.247380000000     0.948510000000     0.647600000000     0.0447249  
H151     H      0.247390000000     0.948510000000     0.592850000000     0.0447664  
H152     H      0.247360000000     0.546210000000     0.592850000000     0.0449368  
H153     H      0.546200000000     0.748910000000     0.897600000000     0.0448132  
H154     H      0.448550000000     0.745800000000     0.897600000000     0.0448099  
H155     H      0.448550000000     0.745800000000     0.842850000000     0.0448557  
H156     H      0.546200000000     0.748910000000     0.842850000000     0.0448599  
H157     H      0.448550000000     0.748910000000     0.592850000000     0.044932   
H158     H      0.046200000000     0.745800000000     0.592850000000     0.0446508  
H159     H      0.046200000000     0.745800000000     0.647600000000     0.0446075  
H160     H      0.448550000000     0.748910000000     0.647600000000     0.0448885  
H161     H      0.094630000000     0.962420000000     0.779110000000     0.0425023  
H162     H      0.094630000000     0.532300000000     0.711340000000     0.0430374  
H163     H      0.150080000000     0.532790000000     0.711850000000     0.0421712  
H164     H      0.150080000000     0.961930000000     0.778600000000     0.0420086  
H165     H      0.344670000000     0.532770000000     0.778620000000     0.0420197  
H166     H      0.344670000000     0.961940000000     0.711840000000     0.0419023  
H167     H      0.400110000000     0.962440000000     0.711320000000     0.0419394  
H168     H      0.400110000000     0.532270000000     0.779130000000     0.0424158  
H169     H      0.462470000000     0.900100000000     0.779150000000     0.0420971  
H170     H      0.032270000000     0.900100000000     0.711300000000     0.0421485  
H171     H      0.032770000000     0.844650000000     0.711820000000     0.0419933  
H172     H      0.461980000000     0.844650000000     0.778640000000     0.0418583  
H173     H      0.032280000000     0.594620000000     0.779140000000     0.0422175  
H174     H      0.462470000000     0.594620000000     0.711310000000     0.0422299  
H175     H      0.461970000000     0.650060000000     0.711820000000     0.0418985  
H176     H      0.032770000000     0.650060000000     0.778630000000     0.0420141  
H177     H      0.094630000000     0.963450000000     0.530130000000     0.0409754  
H178     H      0.094630000000     0.531270000000     0.960330000000     0.0413733  
H179     H      0.150090000000     0.531800000000     0.960840000000     0.041509   
H180     H      0.150090000000     0.962920000000     0.529610000000     0.0416636  
H181     H      0.400120000000     0.531270000000     0.530110000000     0.0409602  
H182     H      0.400120000000     0.963440000000     0.960330000000     0.0403326  
H183     H      0.344650000000     0.962910000000     0.960850000000     0.0412037  
H184     H      0.344650000000     0.531800000000     0.529600000000     0.0417073  
H185     H      0.031250000000     0.900100000000     0.530160000000     0.0408507  
H186     H      0.463500000000     0.900100000000     0.960300000000     0.0407701  
H187     H      0.462970000000     0.844640000000     0.960810000000     0.0413167  
H188     H      0.031780000000     0.844640000000     0.529640000000     0.0417726  
H189     H      0.031270000000     0.594620000000     0.960320000000     0.0408588  
H190     H      0.463470000000     0.594620000000     0.530130000000     0.0409545  
H191     H      0.462940000000     0.650080000000     0.529620000000     0.0416536  
H192     H      0.031800000000     0.650080000000     0.960830000000     0.0414402  
H193     H      0.747390000000     0.046210000000     0.397600000000     0.044596   
H194     H      0.747350000000     0.448510000000     0.397600000000     0.0448783  
H195     H      0.747370000000     0.448510000000     0.342850000000     0.0448503  
H196     H      0.747380000000     0.046210000000     0.342850000000     0.0445672  
H197     H      0.747370000000     0.046210000000     0.147600000000     0.0446816  
H198     H      0.747370000000     0.448510000000     0.147600000000     0.0449557  
H199     H      0.747390000000     0.448510000000     0.092850000000     0.0452764  
H200     H      0.747360000000     0.046210000000     0.092850000000     0.0450041  
H201     H      0.046200000000     0.248910000000     0.397600000000     0.0446565  
H202     H      0.948550000000     0.245800000000     0.397600000000     0.0448053  
H203     H      0.948550000000     0.245800000000     0.342850000000     0.0447924  
H204     H      0.046200000000     0.248910000000     0.342850000000     0.0446503  
H205     H      0.948550000000     0.248910000000     0.092850000000     0.0452116  
H206     H      0.546190000000     0.245800000000     0.092850000000     0.0453922  
H207     H      0.546190000000     0.245800000000     0.147600000000     0.0450518  
H208     H      0.948550000000     0.248910000000     0.147600000000     0.0448749  
H209     H      0.594630000000     0.462420000000     0.279110000000     0.0424277  
H210     H      0.594630000000     0.032290000000     0.211340000000     0.0425386  
H211     H      0.650070000000     0.032790000000     0.211850000000     0.0422615  
H212     H      0.650080000000     0.461930000000     0.278600000000     0.0420882  
H213     H      0.844670000000     0.032770000000     0.278620000000     0.0421588  
H214     H      0.844670000000     0.461940000000     0.211840000000     0.0421266  
H215     H      0.900110000000     0.462440000000     0.211320000000     0.0424003  
H216     H      0.900110000000     0.032280000000     0.279130000000     0.0423499  
H217     H      0.962470000000     0.400100000000     0.279150000000     0.0417218  
H218     H      0.532270000000     0.400100000000     0.211310000000     0.0422889  
H219     H      0.532770000000     0.344650000000     0.211820000000     0.0419897  
H220     H      0.961980000000     0.344650000000     0.278640000000     0.0417642  
H221     H      0.532280000000     0.094620000000     0.279140000000     0.0428184  
H222     H      0.962470000000     0.094620000000     0.211310000000     0.0424042  
H223     H      0.961970000000     0.150060000000     0.211820000000     0.0419234  
H224     H      0.532770000000     0.150060000000     0.278630000000     0.0420469  
H225     H      0.594630000000     0.463450000000     0.030130000000     0.0409753  
H226     H      0.594630000000     0.031270000000     0.460330000000     0.040974   
H227     H      0.650090000000     0.031800000000     0.460840000000     0.0418815  
H228     H      0.650090000000     0.462920000000     0.029610000000     0.0417559  
H229     H      0.900120000000     0.031270000000     0.030120000000     0.0409645  
H230     H      0.900120000000     0.463440000000     0.460330000000     0.0408634  
H231     H      0.844650000000     0.462910000000     0.460850000000     0.0417089  
H232     H      0.844650000000     0.031810000000     0.029600000000     0.0418317  
H233     H      0.531250000000     0.400100000000     0.030160000000     0.0409553  
H234     H      0.963500000000     0.400100000000     0.460300000000     0.0404101  
H235     H      0.962970000000     0.344640000000     0.460810000000     0.0415386  
H236     H      0.531780000000     0.344640000000     0.029640000000     0.0416891  
H237     H      0.531270000000     0.094620000000     0.460320000000     0.0415073  
H238     H      0.963470000000     0.094620000000     0.030130000000     0.0410523  
H239     H      0.962940000000     0.150080000000     0.029620000000     0.0416128  
H240     H      0.531800000000     0.150080000000     0.460830000000     0.0417622  
H241     H      0.747390000000     0.046210000000     0.897600000000     0.0444914  
H242     H      0.747350000000     0.448510000000     0.897600000000     0.0447733  
H243     H      0.747370000000     0.448510000000     0.842850000000     0.0448002  
H244     H      0.747380000000     0.046210000000     0.842850000000     0.0445171  
H245     H      0.747370000000     0.046210000000     0.647600000000     0.0445676  
H246     H      0.747370000000     0.448510000000     0.647600000000     0.0448415  
H247     H      0.747390000000     0.448510000000     0.592850000000     0.0448846  
H248     H      0.747360000000     0.046210000000     0.592850000000     0.0446118  
H249     H      0.046200000000     0.248910000000     0.897600000000     0.0445532  
H250     H      0.948550000000     0.245800000000     0.897600000000     0.0446955  
H251     H      0.948550000000     0.245800000000     0.842850000000     0.0447406  
H252     H      0.046200000000     0.248910000000     0.842850000000     0.044599   
H253     H      0.948550000000     0.248910000000     0.592850000000     0.0448087  
H254     H      0.546190000000     0.245800000000     0.592850000000     0.0449887  
H255     H      0.546190000000     0.245800000000     0.647600000000     0.0449447  
H256     H      0.948550000000     0.248910000000     0.647600000000     0.0447676  
H257     H      0.594630000000     0.462420000000     0.779110000000     0.0424075  
H258     H      0.594630000000     0.032290000000     0.711340000000     0.0424714  
H259     H      0.650070000000     0.032790000000     0.711850000000     0.0421855  
H260     H      0.650080000000     0.461930000000     0.778600000000     0.0420586  
H261     H      0.844670000000     0.032770000000     0.778620000000     0.0421289  
H262     H      0.844670000000     0.461940000000     0.711840000000     0.0420498  
H263     H      0.900110000000     0.462440000000     0.711320000000     0.042332   
H264     H      0.900110000000     0.032280000000     0.779130000000     0.0423294  
H265     H      0.962470000000     0.400100000000     0.779150000000     0.0417045  
H266     H      0.532270000000     0.400100000000     0.711300000000     0.0422193  
H267     H      0.532770000000     0.344650000000     0.711820000000     0.0419256  
H268     H      0.961980000000     0.344650000000     0.778640000000     0.04174    
H269     H      0.532280000000     0.094620000000     0.779140000000     0.0428031  
H270     H      0.962470000000     0.094620000000     0.711310000000     0.0423478  
H271     H      0.961970000000     0.150060000000     0.711820000000     0.041856   
H272     H      0.532770000000     0.150060000000     0.778630000000     0.0420213  
H273     H      0.594630000000     0.463450000000     0.530130000000     0.0409286  
H274     H      0.594630000000     0.031270000000     0.960330000000     0.0408835  
H275     H      0.650090000000     0.031800000000     0.960840000000     0.0415392  
H276     H      0.650090000000     0.462920000000     0.529610000000     0.0417456  
H277     H      0.900120000000     0.031270000000     0.530110000000     0.0409301  
H278     H      0.900120000000     0.463440000000     0.960330000000     0.04077    
H279     H      0.844650000000     0.462910000000     0.960850000000     0.0413673  
H280     H      0.844650000000     0.031810000000     0.529600000000     0.041818   
H281     H      0.531250000000     0.400100000000     0.530160000000     0.0409086  
H282     H      0.963500000000     0.400100000000     0.960300000000     0.0403201  
H283     H      0.962970000000     0.344640000000     0.960810000000     0.0411964  
H284     H      0.531780000000     0.344640000000     0.529640000000     0.0416796  
H285     H      0.531270000000     0.094620000000     0.960320000000     0.0414003  
H286     H      0.963470000000     0.094620000000     0.530130000000     0.0410226  
H287     H      0.962940000000     0.150080000000     0.529620000000     0.0415969  
H288     H      0.531800000000     0.150080000000     0.960830000000     0.0414257  
H289     H      0.747390000000     0.546210000000     0.397600000000     0.0448879  
H290     H      0.747350000000     0.948510000000     0.397600000000     0.0447328  
H291     H      0.747370000000     0.948510000000     0.342850000000     0.0447051  
H292     H      0.747380000000     0.546210000000     0.342850000000     0.0448594  
H293     H      0.747370000000     0.546210000000     0.147600000000     0.0449739  
H294     H      0.747370000000     0.948510000000     0.147600000000     0.0448108  
H295     H      0.747390000000     0.948510000000     0.092850000000     0.045131   
H296     H      0.747360000000     0.546210000000     0.092850000000     0.0452965  
H297     H      0.046200000000     0.748910000000     0.397600000000     0.0446298  
H298     H      0.948550000000     0.745800000000     0.397600000000     0.0447718  
H299     H      0.948550000000     0.745800000000     0.342850000000     0.0447589  
H300     H      0.046200000000     0.748910000000     0.342850000000     0.0446226  
H301     H      0.948550000000     0.748910000000     0.092850000000     0.0451857  
H302     H      0.546190000000     0.745800000000     0.092850000000     0.0453597  
H303     H      0.546190000000     0.745800000000     0.147600000000     0.0450189  
H304     H      0.948550000000     0.748910000000     0.147600000000     0.0448477  
H305     H      0.594630000000     0.962420000000     0.279110000000     0.0419122  
H306     H      0.594630000000     0.532300000000     0.211340000000     0.0424965  
H307     H      0.650070000000     0.532790000000     0.211850000000     0.0421494  
H308     H      0.650080000000     0.961930000000     0.278600000000     0.0419368  
H309     H      0.844670000000     0.532770000000     0.278620000000     0.0420397  
H310     H      0.844670000000     0.961940000000     0.211840000000     0.0419688  
H311     H      0.900110000000     0.962440000000     0.211320000000     0.0419037  
H312     H      0.900110000000     0.532270000000     0.279130000000     0.0423337  
H313     H      0.962470000000     0.900100000000     0.279150000000     0.0416411  
H314     H      0.532270000000     0.900100000000     0.211310000000     0.0422043  
H315     H      0.532770000000     0.844650000000     0.211820000000     0.0419683  
H316     H      0.961980000000     0.844650000000     0.278640000000     0.0417431  
H317     H      0.532280000000     0.594620000000     0.279140000000     0.0422293  
H318     H      0.962470000000     0.594620000000     0.211310000000     0.0418133  
H319     H      0.961970000000     0.650060000000     0.211820000000     0.0418273  
H320     H      0.532770000000     0.650060000000     0.278630000000     0.0419505  
H321     H      0.594630000000     0.963450000000     0.030130000000     0.0404826  
H322     H      0.594630000000     0.531270000000     0.460330000000     0.0409277  
H323     H      0.650090000000     0.531800000000     0.460840000000     0.0417631  
H324     H      0.650090000000     0.962920000000     0.029610000000     0.0415854  
H325     H      0.900120000000     0.531270000000     0.030120000000     0.0409381  
H326     H      0.900120000000     0.963440000000     0.460330000000     0.0403664  
H327     H      0.844650000000     0.962910000000     0.460850000000     0.0415399  
H328     H      0.844650000000     0.531800000000     0.029600000000     0.0417167  
H329     H      0.531250000000     0.900100000000     0.030160000000     0.0408978  
H330     H      0.963500000000     0.900100000000     0.460300000000     0.0403525  
H331     H      0.962970000000     0.844640000000     0.460810000000     0.0415212  
H332     H      0.531780000000     0.844640000000     0.029640000000     0.0416721  
H333     H      0.531270000000     0.594620000000     0.460320000000     0.0409625  
H334     H      0.963470000000     0.594620000000     0.030130000000     0.0405068  
H335     H      0.962940000000     0.650080000000     0.029620000000     0.0415215  
H336     H      0.531800000000     0.650080000000     0.460830000000     0.0416705  
H337     H      0.747390000000     0.546210000000     0.897600000000     0.0447829  
H338     H      0.747350000000     0.948510000000     0.897600000000     0.044628   
H339     H      0.747370000000     0.948510000000     0.842850000000     0.0446552  
H340     H      0.747380000000     0.546210000000     0.842850000000     0.0448093  
H341     H      0.747370000000     0.546210000000     0.647600000000     0.0448596  
H342     H      0.747370000000     0.948510000000     0.647600000000     0.0446966  
H343     H      0.747390000000     0.948510000000     0.592850000000     0.0447384  
H344     H      0.747360000000     0.546210000000     0.592850000000     0.0449046  
H345     H      0.046200000000     0.748910000000     0.897600000000     0.0445266  
H346     H      0.948550000000     0.745800000000     0.897600000000     0.044662   
H347     H      0.948550000000     0.745800000000     0.842850000000     0.0447071  
H348     H      0.046200000000     0.748910000000     0.842850000000     0.0445714  
H349     H      0.948550000000     0.748910000000     0.592850000000     0.0447824  
H350     H      0.546190000000     0.745800000000     0.592850000000     0.0449556  
H351     H      0.546190000000     0.745800000000     0.647600000000     0.0449116  
H352     H      0.948550000000     0.748910000000     0.647600000000     0.0447402  
H353     H      0.594630000000     0.962420000000     0.779110000000     0.0418919  
H354     H      0.594630000000     0.532300000000     0.711340000000     0.0424285  
H355     H      0.650070000000     0.532790000000     0.711850000000     0.0420726  
H356     H      0.650080000000     0.961930000000     0.778600000000     0.0419072  
H357     H      0.844670000000     0.532770000000     0.778620000000     0.04201    
H358     H      0.844670000000     0.961940000000     0.711840000000     0.0418918  
H359     H      0.900110000000     0.962440000000     0.711320000000     0.041835   
H360     H      0.900110000000     0.532270000000     0.779130000000     0.0423134  
H361     H      0.962470000000     0.900100000000     0.779150000000     0.0416238  
H362     H      0.532270000000     0.900100000000     0.711300000000     0.0421346  
H363     H      0.532770000000     0.844650000000     0.711820000000     0.0419042  
H364     H      0.961980000000     0.844650000000     0.778640000000     0.0417189  
H365     H      0.532280000000     0.594620000000     0.779140000000     0.0422138  
H366     H      0.962470000000     0.594620000000     0.711310000000     0.0417561  
H367     H      0.961970000000     0.650060000000     0.711820000000     0.0417597  
H368     H      0.532770000000     0.650060000000     0.778630000000     0.0419249  
H369     H      0.594630000000     0.963450000000     0.530130000000     0.0404347  
H370     H      0.594630000000     0.531270000000     0.960330000000     0.0408363  
H371     H      0.650090000000     0.531800000000     0.960840000000     0.0414201  
H372     H      0.650090000000     0.962920000000     0.529610000000     0.0415744  
H373     H      0.900120000000     0.531270000000     0.530110000000     0.0409044  
H374     H      0.900120000000     0.963440000000     0.960330000000     0.0402742  
H375     H      0.844650000000     0.962910000000     0.960850000000     0.0411994  
H376     H      0.844650000000     0.531800000000     0.529600000000     0.0417032  
H377     H      0.531250000000     0.900100000000     0.530160000000     0.0408508  
H378     H      0.963500000000     0.900100000000     0.960300000000     0.0402627  
H379     H      0.962970000000     0.844640000000     0.960810000000     0.0411791  
H380     H      0.531780000000     0.844640000000     0.529640000000     0.0416622  
H381     H      0.531270000000     0.594620000000     0.960320000000     0.0408559  
H382     H      0.963470000000     0.594620000000     0.530130000000     0.0404759  
H383     H      0.962940000000     0.650080000000     0.529620000000     0.0415052  
H384     H      0.531800000000     0.650080000000     0.960830000000     0.0413338  
O1       O      0.451560000000     0.497080000000     0.470040000000    -0.381908   
O2       O      0.043190000000     0.497640000000     0.470050000000    -0.378792   
O3       O      0.997100000000     0.451540000000     0.470050000000    -0.382817   
O4       O      0.497650000000     0.043170000000     0.470040000000    -0.378617   
O5       O      0.497090000000     0.043170000000     0.020400000000    -0.376304   
O6       O      0.997650000000     0.451540000000     0.020410000000    -0.380645   
O7       O      0.043190000000     0.997080000000     0.020410000000    -0.377057   
O8       O      0.451560000000     0.997640000000     0.020400000000    -0.380697   
O9       O      0.043150000000     0.999350000000     0.220130000000    -0.379739   
O10      O      0.451600000000     0.995360000000     0.220130000000    -0.382574   
O11      O      0.495380000000     0.043130000000     0.220130000000    -0.378621   
O12      O      0.999370000000     0.451580000000     0.220130000000    -0.382941   
O13      O      0.995380000000     0.451580000000     0.270320000000    -0.382588   
O14      O      0.499360000000     0.043130000000     0.270320000000    -0.378734   
O15      O      0.451600000000     0.499350000000     0.270320000000    -0.381937   
O16      O      0.043150000000     0.495360000000     0.270320000000    -0.378632   
O17      O      0.022600000000     0.248240000000     0.449620000000    -0.37933    
O18      O      0.022600000000     0.246470000000     0.040840000000    -0.377219   
O19      O      0.022630000000     0.201550000000     0.994070000000    -0.378727   
O20      O      0.022630000000     0.293160000000     0.496380000000    -0.378252   
O21      O      0.472120000000     0.293160000000     0.494070000000    -0.38206    
O22      O      0.472120000000     0.201550000000     0.996380000000    -0.382859   
O23      O      0.472150000000     0.248240000000     0.040840000000    -0.380975   
O24      O      0.472150000000     0.246470000000     0.449610000000    -0.383017   
O25      O      0.022600000000     0.246490000000     0.199620000000    -0.379307   
O26      O      0.022600000000     0.248220000000     0.290840000000    -0.379455   
O27      O      0.022630000000     0.201550000000     0.246360000000    -0.378277   
O28      O      0.022630000000     0.293160000000     0.244100000000    -0.378455   
O29      O      0.472120000000     0.293160000000     0.246360000000    -0.382267   
O30      O      0.472120000000     0.201550000000     0.244100000000    -0.3821     
O31      O      0.472150000000     0.246490000000     0.290840000000    -0.383204   
O32      O      0.472150000000     0.248220000000     0.199620000000    -0.383072   
O33      O      0.248210000000     0.472130000000     0.040840000000    -0.380844   
O34      O      0.246530000000     0.472130000000     0.449610000000    -0.382918   
O35      O      0.293180000000     0.472100000000     0.494100000000    -0.381845   
O36      O      0.201560000000     0.472100000000     0.996350000000    -0.382706   
O37      O      0.201560000000     0.022620000000     0.994100000000    -0.378676   
O38      O      0.293180000000     0.022620000000     0.496350000000    -0.378126   
O39      O      0.248210000000     0.022590000000     0.449610000000    -0.379264   
O40      O      0.246530000000     0.022590000000     0.040840000000    -0.377186   
O41      O      0.248190000000     0.472130000000     0.290840000000    -0.383112   
O42      O      0.246550000000     0.472130000000     0.199610000000    -0.382945   
O43      O      0.293180000000     0.472100000000     0.244130000000    -0.382123   
O44      O      0.201570000000     0.472100000000     0.246320000000    -0.382151   
O45      O      0.201570000000     0.022610000000     0.244130000000    -0.378523   
O46      O      0.293180000000     0.022610000000     0.246320000000    -0.378495   
O47      O      0.248190000000     0.022590000000     0.199610000000    -0.379291   
O48      O      0.246550000000     0.022590000000     0.290840000000    -0.379452   
O49      O      0.451560000000     0.497080000000     0.970040000000    -0.381272   
O50      O      0.043190000000     0.497640000000     0.970050000000    -0.37816    
O51      O      0.997100000000     0.451540000000     0.970050000000    -0.38218    
O52      O      0.497650000000     0.043170000000     0.970040000000    -0.378048   
O53      O      0.497090000000     0.043170000000     0.520410000000    -0.378699   
O54      O      0.997650000000     0.451540000000     0.520410000000    -0.383206   
O55      O      0.043190000000     0.997080000000     0.520410000000    -0.3796     
O56      O      0.451560000000     0.997640000000     0.520400000000    -0.383259   
O57      O      0.043150000000     0.999350000000     0.720130000000    -0.379775   
O58      O      0.451600000000     0.995360000000     0.720130000000    -0.382611   
O59      O      0.495380000000     0.043130000000     0.720130000000    -0.378655   
O60      O      0.999370000000     0.451580000000     0.720130000000    -0.382982   
O61      O      0.995380000000     0.451580000000     0.770320000000    -0.382595   
O62      O      0.499360000000     0.043130000000     0.770320000000    -0.378739   
O63      O      0.451600000000     0.499350000000     0.770320000000    -0.381943   
O64      O      0.043150000000     0.495360000000     0.770320000000    -0.378637   
O65      O      0.022600000000     0.248240000000     0.949620000000    -0.378997   
O66      O      0.022600000000     0.246470000000     0.540840000000    -0.379396   
O67      O      0.022630000000     0.201550000000     0.494070000000    -0.37819    
O68      O      0.022630000000     0.293160000000     0.996380000000    -0.379097   
O69      O      0.472120000000     0.293160000000     0.994070000000    -0.382606   
O70      O      0.472120000000     0.201550000000     0.496380000000    -0.382007   
O71      O      0.472150000000     0.248240000000     0.540840000000    -0.383151   
O72      O      0.472150000000     0.246470000000     0.949620000000    -0.382739   
O73      O      0.022600000000     0.246490000000     0.699620000000    -0.379347   
O74      O      0.022600000000     0.248220000000     0.790840000000    -0.379468   
O75      O      0.022630000000     0.201550000000     0.746360000000    -0.378305   
O76      O      0.022630000000     0.293160000000     0.744100000000    -0.378478   
O77      O      0.472120000000     0.293160000000     0.746360000000    -0.382298   
O78      O      0.472120000000     0.201550000000     0.744100000000    -0.382125   
O79      O      0.472150000000     0.246490000000     0.790840000000    -0.383217   
O80      O      0.472150000000     0.248220000000     0.699620000000    -0.383116   
O81      O      0.248210000000     0.472130000000     0.540840000000    -0.38302    
O82      O      0.246530000000     0.472130000000     0.949610000000    -0.382611   
O83      O      0.293180000000     0.472100000000     0.994100000000    -0.38238    
O84      O      0.201560000000     0.472100000000     0.496350000000    -0.381864   
O85      O      0.201560000000     0.022620000000     0.494100000000    -0.378135   
O86      O      0.293180000000     0.022620000000     0.996350000000    -0.378973   
O87      O      0.248210000000     0.022590000000     0.949610000000    -0.378962   
O88      O      0.246530000000     0.022590000000     0.540840000000    -0.379345   
O89      O      0.248190000000     0.472130000000     0.790840000000    -0.383125   
O90      O      0.246550000000     0.472130000000     0.699610000000    -0.382991   
O91      O      0.293180000000     0.472100000000     0.744130000000    -0.38215    
O92      O      0.201570000000     0.472100000000     0.746320000000    -0.38218    
O93      O      0.201570000000     0.022610000000     0.744130000000    -0.378547   
O94      O      0.293180000000     0.022610000000     0.746320000000    -0.378521   
O95      O      0.248190000000     0.022590000000     0.699610000000    -0.379333   
O96      O      0.246550000000     0.022590000000     0.790840000000    -0.379464   
O97      O      0.451560000000     0.997080000000     0.470040000000    -0.382722   
O98      O      0.043190000000     0.997640000000     0.470050000000    -0.379959   
O99      O      0.997100000000     0.951540000000     0.470050000000    -0.382332   
O100     O      0.497650000000     0.543170000000     0.470040000000    -0.381828   
O101     O      0.497090000000     0.543170000000     0.020400000000    -0.379498   
O102     O      0.997650000000     0.951540000000     0.020410000000    -0.380166   
O103     O      0.043190000000     0.497080000000     0.020410000000    -0.376245   
O104     O      0.451560000000     0.497640000000     0.020400000000    -0.379522   
O105     O      0.043150000000     0.499350000000     0.220130000000    -0.378502   
O106     O      0.451600000000     0.495360000000     0.220130000000    -0.381792   
O107     O      0.495380000000     0.543130000000     0.220130000000    -0.381809   
O108     O      0.999370000000     0.951590000000     0.220130000000    -0.382491   
O109     O      0.995380000000     0.951580000000     0.270320000000    -0.382075   
O110     O      0.499360000000     0.543130000000     0.270320000000    -0.381943   
O111     O      0.451600000000     0.999350000000     0.270320000000    -0.383165   
O112     O      0.043150000000     0.995360000000     0.270320000000    -0.379398   
O113     O      0.022600000000     0.748240000000     0.449620000000    -0.379335   
O114     O      0.022600000000     0.746470000000     0.040840000000    -0.377227   
O115     O      0.022630000000     0.701550000000     0.994070000000    -0.378762   
O116     O      0.022630000000     0.793160000000     0.496380000000    -0.378239   
O117     O      0.472120000000     0.793160000000     0.494070000000    -0.382054   
O118     O      0.472120000000     0.701550000000     0.996380000000    -0.382906   
O119     O      0.472150000000     0.748240000000     0.040840000000    -0.380985   
O120     O      0.472150000000     0.746470000000     0.449610000000    -0.383035   
O121     O      0.022600000000     0.746490000000     0.199620000000    -0.379326   
O122     O      0.022600000000     0.748220000000     0.290840000000    -0.37947    
O123     O      0.022630000000     0.701560000000     0.246360000000    -0.378312   
O124     O      0.022630000000     0.793160000000     0.244100000000    -0.378463   
O125     O      0.472120000000     0.793160000000     0.246360000000    -0.382281   
O126     O      0.472120000000     0.701560000000     0.244100000000    -0.382144   
O127     O      0.472150000000     0.746490000000     0.290840000000    -0.383231   
O128     O      0.472150000000     0.748220000000     0.199620000000    -0.383094   
O129     O      0.248210000000     0.972130000000     0.040840000000    -0.379931   
O130     O      0.246530000000     0.972130000000     0.449610000000    -0.382      
O131     O      0.293180000000     0.972100000000     0.494100000000    -0.380894   
O132     O      0.201560000000     0.972100000000     0.996350000000    -0.381754   
O133     O      0.201560000000     0.522620000000     0.994100000000    -0.382384   
O134     O      0.293180000000     0.522620000000     0.496350000000    -0.381843   
O135     O      0.248210000000     0.522590000000     0.449610000000    -0.382921   
O136     O      0.246530000000     0.522590000000     0.040840000000    -0.380825   
O137     O      0.248190000000     0.972130000000     0.290840000000    -0.382194   
O138     O      0.246550000000     0.972130000000     0.199610000000    -0.382027   
O139     O      0.293180000000     0.972100000000     0.244130000000    -0.381168   
O140     O      0.201570000000     0.972100000000     0.246320000000    -0.381196   
O141     O      0.201570000000     0.522610000000     0.244130000000    -0.382234   
O142     O      0.293180000000     0.522610000000     0.246320000000    -0.382211   
O143     O      0.248190000000     0.522590000000     0.199610000000    -0.382944   
O144     O      0.246550000000     0.522590000000     0.290840000000    -0.383106   
O145     O      0.451560000000     0.997080000000     0.970040000000    -0.382085   
O146     O      0.043190000000     0.997640000000     0.970050000000    -0.379327   
O147     O      0.997100000000     0.951540000000     0.970050000000    -0.381698   
O148     O      0.497650000000     0.543170000000     0.970040000000    -0.381252   
O149     O      0.497090000000     0.543170000000     0.520410000000    -0.38191    
O150     O      0.997650000000     0.951540000000     0.520410000000    -0.382723   
O151     O      0.043190000000     0.497080000000     0.520410000000    -0.378791   
O152     O      0.451560000000     0.497640000000     0.520400000000    -0.382085   
O153     O      0.043150000000     0.499350000000     0.720130000000    -0.378537   
O154     O      0.451600000000     0.495360000000     0.720130000000    -0.38183    
O155     O      0.495380000000     0.543130000000     0.720130000000    -0.381847   
O156     O      0.999370000000     0.951590000000     0.720130000000    -0.382531   
O157     O      0.995380000000     0.951580000000     0.770320000000    -0.382082   
O158     O      0.499360000000     0.543130000000     0.770320000000    -0.381949   
O159     O      0.451600000000     0.999350000000     0.770320000000    -0.383171   
O160     O      0.043150000000     0.995360000000     0.770320000000    -0.379403   
O161     O      0.022600000000     0.748240000000     0.949620000000    -0.379001   
O162     O      0.022600000000     0.746470000000     0.540840000000    -0.379406   
O163     O      0.022630000000     0.701550000000     0.494070000000    -0.378225   
O164     O      0.022630000000     0.793160000000     0.996380000000    -0.379084   
O165     O      0.472120000000     0.793160000000     0.994070000000    -0.382599   
O166     O      0.472120000000     0.701550000000     0.496380000000    -0.382052   
O167     O      0.472150000000     0.748240000000     0.540840000000    -0.383163   
O168     O      0.472150000000     0.746470000000     0.949620000000    -0.382757   
O169     O      0.022600000000     0.746490000000     0.699620000000    -0.379366   
O170     O      0.022600000000     0.748220000000     0.790840000000    -0.379483   
O171     O      0.022630000000     0.701560000000     0.746360000000    -0.37834    
O172     O      0.022630000000     0.793160000000     0.744100000000    -0.378486   
O173     O      0.472120000000     0.793160000000     0.746360000000    -0.382312   
O174     O      0.472120000000     0.701560000000     0.744100000000    -0.382169   
O175     O      0.472150000000     0.746490000000     0.790840000000    -0.383245   
O176     O      0.472150000000     0.748220000000     0.699620000000    -0.383139   
O177     O      0.248210000000     0.972130000000     0.540840000000    -0.382102   
O178     O      0.246530000000     0.972130000000     0.949610000000    -0.381695   
O179     O      0.293180000000     0.972100000000     0.994100000000    -0.381429   
O180     O      0.201560000000     0.972100000000     0.496350000000    -0.380912   
O181     O      0.201560000000     0.522620000000     0.494100000000    -0.381849   
O182     O      0.293180000000     0.522620000000     0.996350000000    -0.382686   
O183     O      0.248210000000     0.522590000000     0.949610000000    -0.382614   
O184     O      0.246530000000     0.522590000000     0.540840000000    -0.383002   
O185     O      0.248190000000     0.972130000000     0.790840000000    -0.382206   
O186     O      0.246550000000     0.972130000000     0.699610000000    -0.382072   
O187     O      0.293180000000     0.972100000000     0.744130000000    -0.381194   
O188     O      0.201570000000     0.972100000000     0.746320000000    -0.381224   
O189     O      0.201570000000     0.522610000000     0.744130000000    -0.382261   
O190     O      0.293180000000     0.522610000000     0.746320000000    -0.38224    
O191     O      0.248190000000     0.522590000000     0.699610000000    -0.38299    
O192     O      0.246550000000     0.522590000000     0.790840000000    -0.38312    
O193     O      0.951560000000     0.497080000000     0.470040000000    -0.381437   
O194     O      0.543190000000     0.497640000000     0.470050000000    -0.382014   
O195     O      0.497090000000     0.451540000000     0.470050000000    -0.382014   
O196     O      0.997650000000     0.043170000000     0.470040000000    -0.379804   
O197     O      0.997090000000     0.043170000000     0.020400000000    -0.377101   
O198     O      0.497650000000     0.451540000000     0.020410000000    -0.379448   
O199     O      0.543190000000     0.997080000000     0.020410000000    -0.380257   
O200     O      0.951560000000     0.997640000000     0.020400000000    -0.380223   
O201     O      0.543150000000     0.999350000000     0.220130000000    -0.382965   
O202     O      0.951600000000     0.995360000000     0.220130000000    -0.382105   
O203     O      0.995380000000     0.043130000000     0.220130000000    -0.379364   
O204     O      0.499360000000     0.451580000000     0.220130000000    -0.381709   
O205     O      0.495380000000     0.451580000000     0.270320000000    -0.381845   
O206     O      0.999360000000     0.043130000000     0.270320000000    -0.379977   
O207     O      0.951600000000     0.499350000000     0.270320000000    -0.381462   
O208     O      0.543150000000     0.495360000000     0.270320000000    -0.381847   
O209     O      0.522600000000     0.248240000000     0.449620000000    -0.382987   
O210     O      0.522600000000     0.246470000000     0.040840000000    -0.380859   
O211     O      0.522630000000     0.201550000000     0.994070000000    -0.382438   
O212     O      0.522630000000     0.293160000000     0.496380000000    -0.381974   
O213     O      0.972120000000     0.293160000000     0.494070000000    -0.381107   
O214     O      0.972120000000     0.201550000000     0.996380000000    -0.381908   
O215     O      0.972150000000     0.248240000000     0.040840000000    -0.380063   
O216     O      0.972150000000     0.246470000000     0.449610000000    -0.3821     
O217     O      0.522600000000     0.246490000000     0.199620000000    -0.382958   
O218     O      0.522600000000     0.248220000000     0.290840000000    -0.383111   
O219     O      0.522630000000     0.201550000000     0.246360000000    -0.381986   
O220     O      0.522630000000     0.293160000000     0.244100000000    -0.38217    
O221     O      0.972120000000     0.293160000000     0.246360000000    -0.381315   
O222     O      0.972120000000     0.201550000000     0.244100000000    -0.381148   
O223     O      0.972150000000     0.246490000000     0.290840000000    -0.382286   
O224     O      0.972150000000     0.248220000000     0.199620000000    -0.382157   
O225     O      0.748210000000     0.472130000000     0.040840000000    -0.380855   
O226     O      0.746530000000     0.472130000000     0.449610000000    -0.382938   
O227     O      0.793180000000     0.472100000000     0.494100000000    -0.381928   
O228     O      0.701560000000     0.472100000000     0.996350000000    -0.382754   
O229     O      0.701560000000     0.022620000000     0.994100000000    -0.378712   
O230     O      0.793180000000     0.022620000000     0.496350000000    -0.378201   
O231     O      0.748210000000     0.022590000000     0.449610000000    -0.379269   
O232     O      0.746530000000     0.022590000000     0.040840000000    -0.377195   
O233     O      0.748190000000     0.472130000000     0.290840000000    -0.383126   
O234     O      0.746550000000     0.472130000000     0.199610000000    -0.382962   
O235     O      0.793180000000     0.472100000000     0.244130000000    -0.382203   
O236     O      0.701570000000     0.472100000000     0.246320000000    -0.382194   
O237     O      0.701570000000     0.022610000000     0.244130000000    -0.378553   
O238     O      0.793180000000     0.022610000000     0.246320000000    -0.378567   
O239     O      0.748190000000     0.022590000000     0.199610000000    -0.379297   
O240     O      0.746550000000     0.022590000000     0.290840000000    -0.37946    
O241     O      0.951560000000     0.497080000000     0.970040000000    -0.380802   
O242     O      0.543190000000     0.497640000000     0.970050000000    -0.381375   
O243     O      0.497090000000     0.451540000000     0.970050000000    -0.381378   
O244     O      0.997650000000     0.043170000000     0.970040000000    -0.379234   
O245     O      0.997090000000     0.043170000000     0.520410000000    -0.379493   
O246     O      0.497650000000     0.451540000000     0.520410000000    -0.38201    
O247     O      0.543190000000     0.997080000000     0.520410000000    -0.382819   
O248     O      0.951560000000     0.997640000000     0.520400000000    -0.382781   
O249     O      0.543150000000     0.999350000000     0.720130000000    -0.383003   
O250     O      0.951600000000     0.995360000000     0.720130000000    -0.382143   
O251     O      0.995380000000     0.043130000000     0.720130000000    -0.379399   
O252     O      0.499360000000     0.451580000000     0.720130000000    -0.381749   
O253     O      0.495380000000     0.451580000000     0.770320000000    -0.381852   
O254     O      0.999360000000     0.043130000000     0.770320000000    -0.379981   
O255     O      0.951600000000     0.499350000000     0.770320000000    -0.381468   
O256     O      0.543150000000     0.495360000000     0.770320000000    -0.381853   
O257     O      0.522600000000     0.248240000000     0.949620000000    -0.382648   
O258     O      0.522600000000     0.246470000000     0.540840000000    -0.383054   
O259     O      0.522630000000     0.201550000000     0.494070000000    -0.381907   
O260     O      0.522630000000     0.293160000000     0.996380000000    -0.382816   
O261     O      0.972120000000     0.293160000000     0.994070000000    -0.381653   
O262     O      0.972120000000     0.201550000000     0.496380000000    -0.381055   
O263     O      0.972150000000     0.248240000000     0.540840000000    -0.382235   
O264     O      0.972150000000     0.246470000000     0.949620000000    -0.381825   
O265     O      0.522600000000     0.246490000000     0.699620000000    -0.383003   
O266     O      0.522600000000     0.248220000000     0.790840000000    -0.383125   
O267     O      0.522630000000     0.201550000000     0.746360000000    -0.382017   
O268     O      0.522630000000     0.293160000000     0.744100000000    -0.382195   
O269     O      0.972120000000     0.293160000000     0.746360000000    -0.381345   
O270     O      0.972120000000     0.201550000000     0.744100000000    -0.381173   
O271     O      0.972150000000     0.246490000000     0.790840000000    -0.382299   
O272     O      0.972150000000     0.248220000000     0.699620000000    -0.3822     
O273     O      0.748210000000     0.472130000000     0.540840000000    -0.383034   
O274     O      0.746530000000     0.472130000000     0.949610000000    -0.382631   
O275     O      0.793180000000     0.472100000000     0.994100000000    -0.382462   
O276     O      0.701560000000     0.472100000000     0.496350000000    -0.381911   
O277     O      0.701560000000     0.022620000000     0.494100000000    -0.378172   
O278     O      0.793180000000     0.022620000000     0.996350000000    -0.379047   
O279     O      0.748210000000     0.022590000000     0.949610000000    -0.378967   
O280     O      0.746530000000     0.022590000000     0.540840000000    -0.379356   
O281     O      0.748190000000     0.472130000000     0.790840000000    -0.38314    
O282     O      0.746550000000     0.472130000000     0.699610000000    -0.383008   
O283     O      0.793180000000     0.472100000000     0.744130000000    -0.38223    
O284     O      0.701570000000     0.472100000000     0.746320000000    -0.382223   
O285     O      0.701570000000     0.022610000000     0.744130000000    -0.378577   
O286     O      0.793180000000     0.022610000000     0.746320000000    -0.378594   
O287     O      0.748190000000     0.022590000000     0.699610000000    -0.379338   
O288     O      0.746550000000     0.022590000000     0.790840000000    -0.379473   
O289     O      0.951560000000     0.997080000000     0.470040000000    -0.382251   
O290     O      0.543190000000     0.997640000000     0.470050000000    -0.383186   
O291     O      0.497090000000     0.951540000000     0.470050000000    -0.381529   
O292     O      0.997650000000     0.543170000000     0.470040000000    -0.38302    
O293     O      0.997090000000     0.543170000000     0.020400000000    -0.380299   
O294     O      0.497650000000     0.951540000000     0.020410000000    -0.378968   
O295     O      0.543190000000     0.497080000000     0.020410000000    -0.379442   
O296     O      0.951560000000     0.497640000000     0.020400000000    -0.379047   
O297     O      0.543150000000     0.499350000000     0.220130000000    -0.381722   
O298     O      0.951600000000     0.495360000000     0.220130000000    -0.381324   
O299     O      0.995380000000     0.543130000000     0.220130000000    -0.382557   
O300     O      0.499360000000     0.951590000000     0.220130000000    -0.381259   
O301     O      0.495380000000     0.951580000000     0.270320000000    -0.381332   
O302     O      0.999360000000     0.543130000000     0.270320000000    -0.383191   
O303     O      0.951600000000     0.999350000000     0.270320000000    -0.38269    
O304     O      0.543150000000     0.995360000000     0.270320000000    -0.382617   
O305     O      0.522600000000     0.748240000000     0.449620000000    -0.383      
O306     O      0.522600000000     0.746470000000     0.040840000000    -0.380875   
O307     O      0.522630000000     0.701550000000     0.994070000000    -0.382484   
O308     O      0.522630000000     0.793160000000     0.496380000000    -0.381968   
O309     O      0.972120000000     0.793160000000     0.494070000000    -0.381099   
O310     O      0.972120000000     0.701550000000     0.996380000000    -0.381952   
O311     O      0.972150000000     0.748240000000     0.040840000000    -0.380072   
O312     O      0.972150000000     0.746470000000     0.449610000000    -0.382117   
O313     O      0.522600000000     0.746490000000     0.199620000000    -0.382986   
O314     O      0.522600000000     0.748220000000     0.290840000000    -0.383134   
O315     O      0.522630000000     0.701560000000     0.246360000000    -0.382031   
O316     O      0.522630000000     0.793160000000     0.244100000000    -0.382184   
O317     O      0.972120000000     0.793160000000     0.246360000000    -0.381327   
O318     O      0.972120000000     0.701560000000     0.244100000000    -0.381191   
O319     O      0.972150000000     0.746490000000     0.290840000000    -0.382312   
O320     O      0.972150000000     0.748220000000     0.199620000000    -0.382177   
O321     O      0.748210000000     0.972130000000     0.040840000000    -0.37994    
O322     O      0.746530000000     0.972130000000     0.449610000000    -0.382018   
O323     O      0.793180000000     0.972100000000     0.494100000000    -0.380974   
O324     O      0.701560000000     0.972100000000     0.996350000000    -0.381801   
O325     O      0.701560000000     0.522620000000     0.994100000000    -0.382431   
O326     O      0.793180000000     0.522620000000     0.496350000000    -0.381926   
O327     O      0.748210000000     0.522590000000     0.449610000000    -0.382935   
O328     O      0.746530000000     0.522590000000     0.040840000000    -0.380843   
O329     O      0.748190000000     0.972130000000     0.290840000000    -0.382206   
O330     O      0.746550000000     0.972130000000     0.199610000000    -0.382042   
O331     O      0.793180000000     0.972100000000     0.244130000000    -0.381244   
O332     O      0.701570000000     0.972100000000     0.246320000000    -0.381236   
O333     O      0.701570000000     0.522610000000     0.244130000000    -0.382274   
O334     O      0.793180000000     0.522610000000     0.246320000000    -0.382291   
O335     O      0.748190000000     0.522590000000     0.199610000000    -0.382957   
O336     O      0.746550000000     0.522590000000     0.290840000000    -0.383123   
O337     O      0.951560000000     0.997080000000     0.970040000000    -0.381616   
O338     O      0.543190000000     0.997640000000     0.970050000000    -0.382547   
O339     O      0.497090000000     0.951540000000     0.970050000000    -0.380896   
O340     O      0.997650000000     0.543170000000     0.970040000000    -0.382444   
O341     O      0.997090000000     0.543170000000     0.520410000000    -0.382708   
O342     O      0.497650000000     0.951540000000     0.520410000000    -0.381525   
O343     O      0.543190000000     0.497080000000     0.520410000000    -0.382006   
O344     O      0.951560000000     0.497640000000     0.520400000000    -0.381606   
O345     O      0.543150000000     0.499350000000     0.720130000000    -0.38176    
O346     O      0.951600000000     0.495360000000     0.720130000000    -0.381361   
O347     O      0.995380000000     0.543130000000     0.720130000000    -0.382594   
O348     O      0.499360000000     0.951590000000     0.720130000000    -0.381298   
O349     O      0.495380000000     0.951580000000     0.770320000000    -0.381339   
O350     O      0.999360000000     0.543130000000     0.770320000000    -0.383197   
O351     O      0.951600000000     0.999350000000     0.770320000000    -0.382696   
O352     O      0.543150000000     0.995360000000     0.770320000000    -0.382623   
O353     O      0.522600000000     0.748240000000     0.949620000000    -0.38266    
O354     O      0.522600000000     0.746470000000     0.540840000000    -0.383072   
O355     O      0.522630000000     0.701550000000     0.494070000000    -0.381953   
O356     O      0.522630000000     0.793160000000     0.996380000000    -0.382809   
O357     O      0.972120000000     0.793160000000     0.994070000000    -0.381645   
O358     O      0.972120000000     0.701550000000     0.496380000000    -0.381098   
O359     O      0.972150000000     0.748240000000     0.540840000000    -0.382245   
O360     O      0.972150000000     0.746470000000     0.949620000000    -0.381841   
O361     O      0.522600000000     0.746490000000     0.699620000000    -0.38303    
O362     O      0.522600000000     0.748220000000     0.790840000000    -0.383147   
O363     O      0.522630000000     0.701560000000     0.746360000000    -0.382061   
O364     O      0.522630000000     0.793160000000     0.744100000000    -0.382209   
O365     O      0.972120000000     0.793160000000     0.746360000000    -0.381357   
O366     O      0.972120000000     0.701560000000     0.744100000000    -0.381216   
O367     O      0.972150000000     0.746490000000     0.790840000000    -0.382325   
O368     O      0.972150000000     0.748220000000     0.699620000000    -0.382221   
O369     O      0.748210000000     0.972130000000     0.540840000000    -0.382113   
O370     O      0.746530000000     0.972130000000     0.949610000000    -0.381713   
O371     O      0.793180000000     0.972100000000     0.994100000000    -0.381508   
O372     O      0.701560000000     0.972100000000     0.496350000000    -0.380957   
O373     O      0.701560000000     0.522620000000     0.494100000000    -0.381896   
O374     O      0.793180000000     0.522620000000     0.996350000000    -0.382768   
O375     O      0.748210000000     0.522590000000     0.949610000000    -0.382627   
O376     O      0.746530000000     0.522590000000     0.540840000000    -0.383022   
O377     O      0.748190000000     0.972130000000     0.790840000000    -0.382219   
O378     O      0.746550000000     0.972130000000     0.699610000000    -0.382088   
O379     O      0.793180000000     0.972100000000     0.744130000000    -0.381271   
O380     O      0.701570000000     0.972100000000     0.746320000000    -0.381265   
O381     O      0.701570000000     0.522610000000     0.744130000000    -0.382301   
O382     O      0.793180000000     0.522610000000     0.746320000000    -0.38232    
O383     O      0.748190000000     0.522590000000     0.699610000000    -0.383004   
O384     O      0.746550000000     0.522590000000     0.790840000000    -0.383137   


