data_structure

_audit_creation_method RASPA-1.0
_audit_creation_date 2023-5-22
_audit_author_name 'Poobodin Mano'

_cell_length_a    33.2331
_cell_length_b    33.2334
_cell_length_c    33.235
_cell_angle_alpha 90
_cell_angle_beta  90
_cell_angle_gamma 90
_cell_volume      36706.4

_symmetry_cell_setting          triclinic
_symmetry_space_group_name_Hall 'P 1'
_symmetry_space_group_name_H-M  'P 1'
_symmetry_Int_Tables_number     1

_symmetry_equiv_pos_as_xyz 'x,y,z'

loop_
_atom_site_label
_atom_site_type_symbol
_atom_site_fract_x
_atom_site_fract_y
_atom_site_fract_z
_atom_site_charge
C1       C      0.586100000000     0.330020000000     0.998340000000     0.347158   
C2       C      0.745880000000     0.331700000000     0.997140000000     0.347366   
C3       C      0.666690000000     0.250990000000     0.998730000000     0.347356   
C4       C      0.665220000000     0.410790000000     0.996900000000     0.34731    
C5       C      0.411800000000     0.327580000000     0.997290000000     0.347059   
C6       C      0.252010000000     0.324650000000     0.994960000000     0.347113   
C7       C      0.333470000000     0.246300000000     0.997590000000     0.347291   
C8       C      0.330430000000     0.406090000000     0.994550000000     0.346796   
C9       C      0.742110000000     0.665280000000     0.996300000000     0.347291   
C10      C      0.582280000000     0.664510000000     0.993900000000     0.346733   
C11      C      0.662780000000     0.585070000000     0.995530000000     0.34747    
C12      C      0.661930000000     0.744860000000     0.994810000000     0.347639   
C13      C      0.407920000000     0.661500000000     0.993330000000     0.346889   
C14      C      0.248110000000     0.659830000000     0.995030000000     0.347753   
C15      C      0.326890000000     0.740330000000     0.994960000000     0.347513   
C16      C      0.328720000000     0.580490000000     0.993440000000     0.346777   
C17      C      0.584530000000     0.001420000000     0.665570000000     0.350318   
C18      C      0.744360000000     0.000100000000     0.665470000000     0.352888   
C19      C      0.664660000000     0.999860000000     0.745440000000     0.348448   
C20      C      0.664350000000     0.001780000000     0.585650000000     0.350545   
C21      C      0.410190000000     0.000240000000     0.663490000000     0.350116   
C22      C      0.250400000000     0.997500000000     0.663750000000     0.348348   
C23      C      0.330440000000     0.997740000000     0.743330000000     0.348083   
C24      C      0.329920000000     0.999620000000     0.583480000000     0.347567   
C25      C      0.249920000000     0.994400000000     0.328080000000     0.347973   
C26      C      0.409740000000     0.997700000000     0.329740000000     0.347725   
C27      C      0.329100000000     0.998020000000     0.409080000000     0.347625   
C28      C      0.330360000000     0.994290000000     0.249310000000     0.348588   
C29      C      0.743940000000     0.000820000000     0.332360000000     0.350216   
C30      C      0.584110000000     0.999690000000     0.330740000000     0.347675   
C31      C      0.663530000000     0.001520000000     0.411360000000     0.350367   
C32      C      0.664680000000     0.998950000000     0.251570000000     0.347994   
C33      C      0.994040000000     0.664290000000     0.744340000000     0.34841    
C34      C      0.992510000000     0.665650000000     0.584510000000     0.347517   
C35      C      0.992140000000     0.585070000000     0.663720000000     0.347759   
C36      C      0.994580000000     0.744870000000     0.665570000000     0.348126   
C37      C      0.992930000000     0.410750000000     0.662450000000     0.34786    
C38      C      0.996370000000     0.250960000000     0.662340000000     0.347758   
C39      C      0.994220000000     0.331160000000     0.742330000000     0.347805   
C40      C      0.995150000000     0.330670000000     0.582530000000     0.347938   
C41      C      0.992900000000     0.663190000000     0.410100000000     0.347243   
C42      C      0.995090000000     0.662160000000     0.250300000000     0.348104   
C43      C      0.993180000000     0.742440000000     0.329620000000     0.347931   
C44      C      0.994960000000     0.582610000000     0.330220000000     0.347396   
C45      C      0.999980000000     0.326850000000     0.248450000000     0.345568   
C46      C      0.997090000000     0.329330000000     0.408250000000     0.34793    
C47      C      0.997330000000     0.408250000000     0.327460000000     0.347424   
C48      C      0.999550000000     0.248450000000     0.329490000000     0.34828    
C49      C      0.919110000000     0.330350000000     0.996530000000     0.349586   
C50      C      0.078710000000     0.326040000000     0.994090000000     0.349343   
C51      C      0.997180000000     0.330260000000     0.915560000000     0.349419   
C52      C      0.000370000000     0.326160000000     0.075180000000     0.349908   
C53      C      0.915380000000     0.663440000000     0.997680000000     0.346485   
C54      C      0.074940000000     0.661650000000     0.996920000000     0.34913    
C55      C      0.994860000000     0.663050000000     0.917540000000     0.348957   
C56      C      0.995620000000     0.662110000000     0.077090000000     0.348855   
C57      C      0.076700000000     0.993290000000     0.327630000000     0.349034   
C58      C      0.917150000000     0.998020000000     0.332020000000     0.349516   
C59      C      0.999080000000     0.075280000000     0.330460000000     0.347738   
C60      C      0.994660000000     0.915700000000     0.329150000000     0.34922    
C61      C      0.917610000000     0.998550000000     0.664680000000     0.34728    
C62      C      0.077230000000     0.997110000000     0.664320000000     0.34926    
C63      C      0.996850000000     0.918070000000     0.666230000000     0.349165   
C64      C      0.998160000000     0.077680000000     0.662650000000     0.34883    
C65      C      0.665330000000     0.077690000000     0.999270000000     0.345946   
C66      C      0.663610000000     0.918110000000     0.997360000000     0.346322   
C67      C      0.664390000000     0.997140000000     0.078250000000     0.346471   
C68      C      0.664630000000     0.998640000000     0.918660000000     0.346977   
C69      C      0.332890000000     0.073090000000     0.997560000000     0.349288   
C70      C      0.328020000000     0.913540000000     0.995660000000     0.34954    
C71      C      0.330300000000     0.992400000000     0.076180000000     0.349304   
C72      C      0.330550000000     0.994420000000     0.916580000000     0.349079   
C73      C      0.025260000000     0.140900000000     0.356190000000    -0.00253838 
C74      C      0.999350000000     0.119540000000     0.330560000000    -0.0828777  
C75      C      0.973730000000     0.140780000000     0.304560000000    -0.00351685 
C76      C      0.973490000000     0.182790000000     0.304660000000    -0.00328134 
C77      C      0.999860000000     0.204190000000     0.329760000000    -0.0833105  
C78      C      0.026020000000     0.182990000000     0.355270000000    -0.00193126 
C79      C      0.975150000000     0.299730000000     0.140810000000    -0.00468165 
C80      C      0.001110000000     0.325290000000     0.119460000000    -0.0807793  
C81      C      0.027150000000     0.350880000000     0.140740000000    -0.00298919 
C82      C      0.027480000000     0.350660000000     0.182800000000    -0.00465173 
C83      C      0.000760000000     0.325910000000     0.204170000000    -0.0783212  
C84      C      0.974480000000     0.300560000000     0.182890000000    -0.00560763 
C85      C      0.959980000000     0.473910000000     0.328210000000    -0.00510409 
C86      C      0.996690000000     0.452860000000     0.327840000000    -0.082571   
C87      C      0.032810000000     0.474900000000     0.328290000000    -0.00400673 
C88      C      0.032250000000     0.516950000000     0.329140000000    -0.00405924 
C89      C      0.995540000000     0.537990000000     0.329580000000    -0.0824184  
C90      C      0.959420000000     0.515960000000     0.329090000000    -0.00523309 
C91      C      0.019100000000     0.807920000000     0.355180000000    -0.00258572 
C92      C      0.993030000000     0.786730000000     0.329600000000    -0.0830656  
C93      C      0.967430000000     0.808170000000     0.303710000000    -0.00395007 
C94      C      0.968460000000     0.850260000000     0.302920000000    -0.0034382  
C95      C      0.994090000000     0.871420000000     0.329010000000    -0.0837073  
C96      C      0.019120000000     0.849940000000     0.355390000000    -0.00201505 
C97      C      0.969280000000     0.636670000000     0.184640000000    -0.00354153 
C98      C      0.995600000000     0.661860000000     0.206030000000    -0.083445   
C99      C      0.022110000000     0.686960000000     0.184800000000    -0.00254743 
C100     C      0.021710000000     0.687480000000     0.142740000000    -0.00247991 
C101     C      0.995780000000     0.661880000000     0.121360000000    -0.0834804  
C102     C      0.969860000000     0.636180000000     0.142600000000    -0.00382795 
C103     C      0.032640000000     0.330130000000     0.474780000000    -0.00388844 
C104     C      0.996460000000     0.329810000000     0.452840000000    -0.0826148  
C105     C      0.959800000000     0.329870000000     0.473950000000    -0.00504841 
C106     C      0.959360000000     0.330210000000     0.516020000000    -0.00493516 
C107     C      0.995550000000     0.330470000000     0.537940000000    -0.082737   
C108     C      0.032190000000     0.330440000000     0.516810000000    -0.0037458  
C109     C      0.968630000000     0.305920000000     0.808250000000    -0.00425172 
C110     C      0.994190000000     0.331640000000     0.786620000000    -0.083008   
C111     C      0.020260000000     0.357440000000     0.807630000000    -0.00253199 
C112     C      0.020520000000     0.357750000000     0.849700000000    -0.00218821 
C113     C      0.995740000000     0.331270000000     0.871310000000    -0.0838568  
C114     C      0.969910000000     0.305230000000     0.850300000000    -0.00319343 
C115     C      0.971530000000     0.185030000000     0.636370000000    -0.00361066 
C116     C      0.997310000000     0.206670000000     0.661920000000    -0.0829897  
C117     C      0.023810000000     0.185660000000     0.687220000000    -0.00293709 
C118     C      0.023830000000     0.143600000000     0.687670000000    -0.00205628 
C119     C      0.998360000000     0.121960000000     0.661810000000    -0.0833995  
C120     C      0.972550000000     0.142970000000     0.635810000000    -0.00358099 
C121     C      0.955960000000     0.665560000000     0.518260000000    -0.00511148 
C122     C      0.992350000000     0.665340000000     0.539880000000    -0.0825243  
C123     C      0.028790000000     0.664480000000     0.518400000000    -0.0041835  
C124     C      0.028880000000     0.663760000000     0.476380000000    -0.00422381 
C125     C      0.992540000000     0.663890000000     0.454730000000    -0.0824036  
C126     C      0.956060000000     0.664840000000     0.476160000000    -0.00517488 
C127     C      0.028430000000     0.519080000000     0.662410000000    -0.00397531 
C128     C      0.991950000000     0.540470000000     0.663290000000    -0.0826515  
C129     C      0.955600000000     0.518800000000     0.663790000000    -0.00504529 
C130     C      0.955810000000     0.476690000000     0.663470000000    -0.0048871  
C131     C      0.992350000000     0.455350000000     0.662630000000    -0.0827039  
C132     C      0.028630000000     0.477090000000     0.662080000000    -0.00400583 
C133     C      0.969240000000     0.810690000000     0.691450000000    -0.0035111  
C134     C      0.995430000000     0.789140000000     0.666240000000    -0.0831248  
C135     C      0.022460000000     0.810200000000     0.641570000000    -0.00244788 
C136     C      0.022640000000     0.852250000000     0.641390000000    -0.00191251 
C137     C      0.996800000000     0.873800000000     0.666920000000    -0.0835358  
C138     C      0.970420000000     0.852760000000     0.692310000000    -0.00364611 
C139     C      0.021030000000     0.638850000000     0.809610000000    -0.00211176 
C140     C      0.994410000000     0.664040000000     0.788610000000    -0.0834284  
C141     C      0.967990000000     0.688910000000     0.810220000000    -0.00330757 
C142     C      0.968630000000     0.689090000000     0.852270000000    -0.00384384 
C143     C      0.994720000000     0.663360000000     0.873270000000    -0.0834718  
C144     C      0.020690000000     0.637990000000     0.851670000000    -0.00252759 
C145     C      0.809900000000     0.026490000000     0.307360000000    -0.00513692 
C146     C      0.788220000000     0.000970000000     0.333080000000    -0.0801699  
C147     C      0.809170000000     0.975050000000     0.359070000000    -0.00562473 
C148     C      0.851240000000     0.974880000000     0.359560000000    -0.00254257 
C149     C      0.872900000000     0.999600000000     0.333050000000    -0.0842816  
C150     C      0.851950000000     0.025290000000     0.306850000000    -0.00101239 
C151     C      0.639380000000     0.024450000000     0.185700000000    -0.00230066 
C152     C      0.664550000000     0.998270000000     0.207270000000    -0.0833783  
C153     C      0.689570000000     0.971540000000     0.186190000000    -0.00370325 
C154     C      0.689980000000     0.971570000000     0.144100000000    -0.00435202 
C155     C      0.664340000000     0.997320000000     0.122560000000    -0.0823372  
C156     C      0.638770000000     0.023500000000     0.143660000000    -0.00328341 
C157     C      0.475470000000     0.035020000000     0.329940000000    -0.0040215  
C158     C      0.454350000000     0.998360000000     0.330000000000    -0.0824594  
C159     C      0.476320000000     0.962180000000     0.330270000000    -0.00513142 
C160     C      0.518360000000     0.962630000000     0.330470000000    -0.00518167 
C161     C      0.539490000000     0.999270000000     0.330440000000    -0.0824164  
C162     C      0.517550000000     0.035470000000     0.330170000000    -0.00411399 
C163     C      0.142380000000     0.967090000000     0.352650000000    -0.00312024 
C164     C      0.120960000000     0.992610000000     0.326670000000    -0.0830846  
C165     C      0.142170000000     0.018290000000     0.300710000000    -0.00244959 
C166     C      0.184230000000     0.019210000000     0.301510000000    -0.00223819 
C167     C      0.205650000000     0.993440000000     0.327250000000    -0.0828254  
C168     C      0.184440000000     0.966980000000     0.352420000000    -0.00356687 
C169     C      0.304380000000     0.018950000000     0.183490000000    -0.00221644 
C170     C      0.330180000000     0.993410000000     0.205060000000    -0.0829612  
C171     C      0.355900000000     0.967310000000     0.184060000000    -0.00335752 
C172     C      0.356410000000     0.967390000000     0.141980000000    -0.00300551 
C173     C      0.330160000000     0.992510000000     0.120430000000    -0.0831551  
C174     C      0.303870000000     0.017990000000     0.141460000000    -0.00190359 
C175     C      0.330090000000     0.963010000000     0.517610000000    -0.0052683  
C176     C      0.329610000000     0.999600000000     0.538850000000    -0.0823318  
C177     C      0.328800000000     0.035830000000     0.517000000000    -0.00408463 
C178     C      0.328540000000     0.035420000000     0.474880000000    -0.00395969 
C179     C      0.329090000000     0.998770000000     0.453700000000    -0.0823865  
C180     C      0.329830000000     0.962600000000     0.475610000000    -0.00530006 
C181     C      0.305700000000     0.023250000000     0.809450000000    -0.00248589 
C182     C      0.330590000000     0.997030000000     0.787610000000    -0.0831817  
C183     C      0.355510000000     0.969980000000     0.808400000000    -0.00340694 
C184     C      0.356030000000     0.969630000000     0.850460000000    -0.00377943 
C185     C      0.330600000000     0.995330000000     0.872290000000    -0.0833159  
C186     C      0.305200000000     0.021920000000     0.851500000000    -0.00273683 
C187     C      0.184860000000     0.022710000000     0.689980000000    -0.00233282 
C188     C      0.206140000000     0.996950000000     0.664150000000    -0.0829166  
C189     C      0.184830000000     0.971060000000     0.638470000000    -0.00354775 
C190     C      0.142750000000     0.971570000000     0.638040000000    -0.00300342 
C191     C      0.121490000000     0.996910000000     0.664310000000    -0.083277   
C192     C      0.142820000000     0.022170000000     0.690570000000    -0.00197318 
C193     C      0.663060000000     0.965530000000     0.477560000000    -0.00621222 
C194     C      0.663570000000     0.001890000000     0.455950000000    -0.080634   
C195     C      0.664310000000     0.038360000000     0.477400000000    -0.00497861 
C196     C      0.664560000000     0.038420000000     0.519500000000    -0.00496205 
C197     C      0.664100000000     0.002010000000     0.541060000000    -0.0806841  
C198     C      0.663330000000     0.965590000000     0.519560000000    -0.00620062 
C199     C      0.476060000000     0.037400000000     0.664660000000    -0.00502582 
C200     C      0.454800000000     0.000810000000     0.663920000000    -0.0804324  
C201     C      0.476600000000     0.964570000000     0.663800000000    -0.00629618 
C202     C      0.518610000000     0.964860000000     0.664410000000    -0.00627728 
C203     C      0.539920000000     0.001410000000     0.665150000000    -0.0805013  
C204     C      0.518150000000     0.037700000000     0.665270000000    -0.00510583 
C205     C      0.810300000000     0.026130000000     0.690070000000    -0.00119444 
C206     C      0.788640000000     0.999660000000     0.665290000000    -0.0858251  
C207     C      0.809600000000     0.972850000000     0.640270000000    -0.00215729 
C208     C      0.851660000000     0.972990000000     0.639530000000    -0.00459369 
C209     C      0.873320000000     0.998960000000     0.664830000000    -0.0824023  
C210     C      0.852360000000     0.025290000000     0.690360000000    -0.0036459  
C211     C      0.639880000000     0.972590000000     0.810820000000    -0.00318974 
C212     C      0.664790000000     0.999370000000     0.789710000000    -0.0835681  
C213     C      0.689700000000     0.025860000000     0.811210000000    -0.00217881 
C214     C      0.690180000000     0.025110000000     0.853260000000    -0.00322204 
C215     C      0.664710000000     0.998870000000     0.874380000000    -0.0827343  
C216     C      0.639310000000     0.972840000000     0.852890000000    -0.00414255 
C217     C      0.301590000000     0.806180000000     0.969090000000    -0.00345975 
C218     C      0.326570000000     0.784610000000     0.995480000000    -0.0834552  
C219     C      0.351520000000     0.805670000000     0.022250000000    -0.00191539 
C220     C      0.352210000000     0.847700000000     0.021980000000    -0.00118282 
C221     C      0.326920000000     0.869290000000     0.995920000000    -0.0842617  
C222     C      0.301240000000     0.848270000000     0.969810000000    -0.00335614 
C223     C      0.140490000000     0.686300000000     0.970080000000    -0.00368287 
C224     C      0.119200000000     0.661140000000     0.996490000000    -0.0840032  
C225     C      0.140510000000     0.635480000000     0.022410000000    -0.00181477 
C226     C      0.182580000000     0.635510000000     0.022420000000    -0.00160725 
C227     C      0.203850000000     0.660150000000     0.995510000000    -0.083825   
C228     C      0.182520000000     0.685290000000     0.969110000000    -0.00327059 
C229     C      0.473990000000     0.662110000000     0.029650000000    -0.00355131 
C230     C      0.452530000000     0.662280000000     0.993190000000    -0.0830679  
C231     C      0.474160000000     0.663310000000     0.956830000000    -0.00503798 
C232     C      0.516260000000     0.664120000000     0.956970000000    -0.00512857 
C233     C      0.537670000000     0.663900000000     0.993480000000    -0.0829631  
C234     C      0.515990000000     0.662910000000     0.029800000000    -0.00367256 
C235     C      0.636770000000     0.810330000000     0.021390000000    -0.00172692 
C236     C      0.661930000000     0.789150000000     0.994870000000    -0.0840402  
C237     C      0.687550000000     0.810600000000     0.969030000000    -0.00376304 
C238     C      0.688600000000     0.852650000000     0.970310000000    -0.00419545 
C239     C      0.663040000000     0.873820000000     0.996450000000    -0.0833844  
C240     C      0.636810000000     0.852380000000     0.021670000000    -0.002539   
C241     C      0.807760000000     0.689660000000     0.023510000000    -0.00210263 
C242     C      0.786400000000     0.664810000000     0.996870000000    -0.0838157  
C243     C      0.807670000000     0.639460000000     0.970600000000    -0.00355921 
C244     C      0.849700000000     0.638510000000     0.971410000000    -0.00405022 
C245     C      0.871090000000     0.663890000000     0.997520000000    -0.0835077  
C246     C      0.849850000000     0.689720000000     0.023340000000    -0.00240055 
C247     C      0.329180000000     0.471990000000     0.957390000000    -0.00503271 
C248     C      0.329850000000     0.450710000000     0.993970000000    -0.0830092  
C249     C      0.330080000000     0.472520000000     0.030210000000    -0.00356935 
C250     C      0.329710000000     0.514520000000     0.029940000000    -0.00367143 
C251     C      0.329090000000     0.535860000000     0.993410000000    -0.0828461  
C252     C      0.328810000000     0.514110000000     0.957110000000    -0.00520044 
C253     C      0.144210000000     0.298840000000     0.968960000000    -0.0033782  
C254     C      0.122990000000     0.325130000000     0.994340000000    -0.0843006  
C255     C      0.144420000000     0.351070000000     0.019870000000    -0.00131393 
C256     C      0.186430000000     0.350350000000     0.020480000000    -0.00223367 
C257     C      0.207710000000     0.324680000000     0.994570000000    -0.0834004  
C258     C      0.186330000000     0.299130000000     0.968560000000    -0.00409656 
C259     C      0.359740000000     0.180630000000     0.972370000000    -0.00364928 
C260     C      0.334160000000     0.202020000000     0.998330000000    -0.0834213  
C261     C      0.308790000000     0.180790000000     0.024560000000    -0.00241712 
C262     C      0.308220000000     0.138740000000     0.024080000000    -0.00119192 
C263     C      0.334030000000     0.117340000000     0.998370000000    -0.0842649  
C264     C      0.360180000000     0.138550000000     0.972890000000    -0.00340786 
C265     C      0.663750000000     0.518670000000     0.959570000000    -0.0050056  
C266     C      0.663310000000     0.540480000000     0.995830000000    -0.0832493  
C267     C      0.663520000000     0.519230000000     0.032410000000    -0.00335739 
C268     C      0.664140000000     0.477190000000     0.032720000000    -0.00338816 
C269     C      0.664600000000     0.455370000000     0.996470000000    -0.0832476  
C270     C      0.664410000000     0.476610000000     0.959880000000    -0.00499024 
C271     C      0.520160000000     0.329790000000     0.961800000000    -0.00512499 
C272     C      0.541500000000     0.329490000000     0.998330000000    -0.0830593  
C273     C      0.519780000000     0.328620000000     0.034630000000    -0.00336197 
C274     C      0.477690000000     0.328030000000     0.034360000000    -0.0032389  
C275     C      0.456390000000     0.328300000000     0.997790000000    -0.0831004  
C276     C      0.478150000000     0.329200000000     0.961540000000    -0.00512189 
C277     C      0.811760000000     0.357240000000     0.022700000000    -0.002088   
C278     C      0.790170000000     0.331860000000     0.996710000000    -0.0835262  
C279     C      0.811210000000     0.306380000000     0.970430000000    -0.0041654  
C280     C      0.853240000000     0.305620000000     0.970750000000    -0.00301661 
C281     C      0.874840000000     0.331330000000     0.996370000000    -0.0845499  
C282     C      0.853840000000     0.357500000000     0.022030000000    -0.00162113 
C283     C      0.640990000000     0.185470000000     0.972830000000    -0.00345801 
C284     C      0.666360000000     0.206690000000     0.999120000000    -0.0838635  
C285     C      0.691370000000     0.185260000000     0.025570000000    -0.00203351 
C286     C      0.691570000000     0.143170000000     0.025170000000    -0.00257318 
C287     C      0.665710000000     0.121980000000     0.999320000000    -0.0831727  
C288     C      0.640170000000     0.143440000000     0.973420000000    -0.00416816 
Cu1      Cu     0.665680000000     0.330290000000     0.960540000000     0.840599   
Cu2      Cu     0.666450000000     0.331360000000     0.035090000000     0.84043    
Cu3      Cu     0.331220000000     0.326880000000     0.033340000000     0.842949   
Cu4      Cu     0.332470000000     0.325330000000     0.958810000000     0.83716    
Cu5      Cu     0.661640000000     0.665320000000     0.032370000000     0.843346   
Cu6      Cu     0.662920000000     0.664740000000     0.957830000000     0.837206   
Cu7      Cu     0.327430000000     0.660950000000     0.956840000000     0.83605    
Cu8      Cu     0.328400000000     0.660060000000     0.031410000000     0.84481    
Cu9      Cu     0.664120000000     0.963550000000     0.665080000000     0.842769   
Cu10     Cu     0.664920000000     0.038130000000     0.666140000000     0.839853   
Cu11     Cu     0.329500000000     0.036120000000     0.664010000000     0.839181   
Cu12     Cu     0.330920000000     0.961550000000     0.662960000000     0.842094   
Cu13     Cu     0.330620000000     0.958870000000     0.330030000000     0.840939   
Cu14     Cu     0.328880000000     0.033410000000     0.328150000000     0.840168   
Cu15     Cu     0.663710000000     0.037560000000     0.330730000000     0.839922   
Cu16     Cu     0.664500000000     0.963010000000     0.332090000000     0.84138    
Cu17     Cu     0.955960000000     0.665690000000     0.664970000000     0.836603   
Cu18     Cu     0.030540000000     0.664400000000     0.664070000000     0.844662   
Cu19     Cu     0.957350000000     0.329920000000     0.662140000000     0.836843   
Cu20     Cu     0.031880000000     0.331670000000     0.662840000000     0.844037   
Cu21     Cu     0.031260000000     0.663130000000     0.330700000000     0.843203   
Cu22     Cu     0.956720000000     0.662090000000     0.329510000000     0.837133   
Cu23     Cu     0.961220000000     0.327620000000     0.327530000000     0.83985    
Cu24     Cu     0.035780000000     0.328870000000     0.329070000000     0.841039   
Cu25     Cu     0.000120000000     0.365490000000     0.996520000000     0.843615   
Cu26     Cu     0.997660000000     0.290890000000     0.994190000000     0.836931   
Cu27     Cu     0.995580000000     0.699840000000     0.997540000000     0.837363   
Cu28     Cu     0.994780000000     0.625280000000     0.997100000000     0.837923   
Cu29     Cu     0.995680000000     0.996060000000     0.292500000000     0.83998    
Cu30     Cu     0.998150000000     0.994960000000     0.367130000000     0.838163   
Cu31     Cu     0.997340000000     0.996790000000     0.627160000000     0.838982   
Cu32     Cu     0.997510000000     0.998930000000     0.701780000000     0.838231   
Cu33     Cu     0.627230000000     0.998270000000     0.998380000000     0.835923   
Cu34     Cu     0.701780000000     0.997500000000     0.998500000000     0.834455   
Cu35     Cu     0.293140000000     0.994670000000     0.996350000000     0.839633   
Cu36     Cu     0.367750000000     0.991960000000     0.996440000000     0.838537   
H1       H      0.045380000000     0.125030000000     0.376340000000     0.0423331  
H2       H      0.953400000000     0.124860000000     0.284650000000     0.0411934  
H3       H      0.953140000000     0.198590000000     0.284670000000     0.0409628  
H4       H      0.046460000000     0.198980000000     0.375010000000     0.0418866  
H5       H      0.954690000000     0.279920000000     0.124950000000     0.0418847  
H6       H      0.047490000000     0.370770000000     0.124810000000     0.0411145  
H7       H      0.047900000000     0.370540000000     0.198630000000     0.0421764  
H8       H      0.953740000000     0.281080000000     0.198820000000     0.041394   
H9       H      0.931580000000     0.457930000000     0.327930000000     0.0448922  
H10      H      0.061650000000     0.459720000000     0.328050000000     0.0446091  
H11      H      0.060660000000     0.532910000000     0.329450000000     0.044833   
H12      H      0.930590000000     0.531150000000     0.329350000000     0.0447438  
H13      H      0.039030000000     0.791960000000     0.375460000000     0.04176    
H14      H      0.947240000000     0.792360000000     0.283570000000     0.0419411  
H15      H      0.948780000000     0.866290000000     0.282460000000     0.0418576  
H16      H      0.039220000000     0.865680000000     0.375670000000     0.041158   
H17      H      0.948680000000     0.616960000000     0.200460000000     0.0420731  
H18      H      0.042540000000     0.706750000000     0.200740000000     0.0425414  
H19      H      0.042070000000     0.707430000000     0.126910000000     0.0428848  
H20      H      0.949500000000     0.616310000000     0.126680000000     0.0424824  
H21      H      0.061450000000     0.330090000000     0.459540000000     0.0448838  
H22      H      0.931370000000     0.329640000000     0.458040000000     0.0449778  
H23      H      0.930570000000     0.330220000000     0.531300000000     0.0448156  
H24      H      0.060660000000     0.330650000000     0.532680000000     0.044973   
H25      H      0.948410000000     0.285670000000     0.792630000000     0.0417703  
H26      H      0.040120000000     0.377640000000     0.791490000000     0.0420759  
H27      H      0.040760000000     0.377970000000     0.865330000000     0.0420396  
H28      H      0.950410000000     0.284680000000     0.866430000000     0.0408763  
H29      H      0.950970000000     0.200680000000     0.616480000000     0.0421812  
H30      H      0.043860000000     0.201770000000     0.707250000000     0.0419571  
H31      H      0.044050000000     0.127950000000     0.707900000000     0.041174   
H32      H      0.952520000000     0.126840000000     0.615770000000     0.0423567  
H33      H      0.927330000000     0.666200000000     0.533820000000     0.0448619  
H34      H      0.057400000000     0.664280000000     0.533990000000     0.0445561  
H35      H      0.057570000000     0.663080000000     0.460930000000     0.0445593  
H36      H      0.927500000000     0.665000000000     0.460470000000     0.0448824  
H37      H      0.057020000000     0.534710000000     0.662000000000     0.0447866  
H38      H      0.926950000000     0.534320000000     0.664470000000     0.0448887  
H39      H      0.927290000000     0.460900000000     0.663920000000     0.0449121  
H40      H      0.057360000000     0.461720000000     0.661430000000     0.0447613  
H41      H      0.948290000000     0.794970000000     0.710860000000     0.0409759  
H42      H      0.042840000000     0.794150000000     0.621820000000     0.0415749  
H43      H      0.043300000000     0.867940000000     0.621640000000     0.0408657  
H44      H      0.950100000000     0.868860000000     0.712080000000     0.041521   
H45      H      0.041550000000     0.619310000000     0.793480000000     0.0417761  
H46      H      0.947310000000     0.708680000000     0.794580000000     0.0410478  
H47      H      0.948260000000     0.708800000000     0.868380000000     0.0418851  
H48      H      0.041170000000     0.618040000000     0.867320000000     0.0422117  
H49      H      0.794320000000     0.046590000000     0.286970000000     0.0422804  
H50      H      0.792990000000     0.955220000000     0.379270000000     0.0422762  
H51      H      0.866840000000     0.954720000000     0.379880000000     0.0416244  
H52      H      0.868130000000     0.044710000000     0.286250000000     0.0406912  
H53      H      0.619720000000     0.045200000000     0.201380000000     0.0422544  
H54      H      0.709330000000     0.951180000000     0.202260000000     0.0419623  
H55      H      0.709850000000     0.951040000000     0.128400000000     0.0423743  
H56      H      0.618890000000     0.043760000000     0.127620000000     0.0429329  
H57      H      0.459540000000     0.063450000000     0.329730000000     0.0449093  
H58      H      0.461090000000     0.933370000000     0.330300000000     0.0447593  
H59      H      0.534240000000     0.934180000000     0.330680000000     0.0448477  
H60      H      0.532830000000     0.064250000000     0.330130000000     0.0448015  
H61      H      0.126560000000     0.946990000000     0.372870000000     0.0408294  
H62      H      0.126190000000     0.038380000000     0.280610000000     0.0422033  
H63      H      0.200050000000     0.039720000000     0.281710000000     0.0411567  
H64      H      0.200390000000     0.946940000000     0.372590000000     0.0414983  
H65      H      0.284190000000     0.039200000000     0.199160000000     0.0410621  
H66      H      0.376150000000     0.947480000000     0.200180000000     0.0414738  
H67      H      0.376830000000     0.947410000000     0.126270000000     0.0409171  
H68      H      0.283500000000     0.037730000000     0.125370000000     0.0412725  
H69      H      0.330690000000     0.934490000000     0.533370000000     0.0447342  
H70      H      0.328400000000     0.064550000000     0.532390000000     0.0448941  
H71      H      0.327970000000     0.063860000000     0.458980000000     0.0449369  
H72      H      0.330260000000     0.933800000000     0.460360000000     0.0446586  
H73      H      0.286120000000     0.044230000000     0.793980000000     0.0409771  
H74      H      0.375040000000     0.949590000000     0.792100000000     0.0417927  
H75      H      0.375760000000     0.948790000000     0.865930000000     0.0420893  
H76      H      0.285460000000     0.042120000000     0.867790000000     0.0420453  
H77      H      0.200780000000     0.042820000000     0.710120000000     0.0408202  
H78      H      0.200720000000     0.951080000000     0.618190000000     0.0412372  
H79      H      0.126810000000     0.951730000000     0.617650000000     0.0405924  
H80      H      0.126960000000     0.042050000000     0.710980000000     0.0409335  
H81      H      0.662500000000     0.936850000000     0.462080000000     0.0449198  
H82      H      0.664720000000     0.066930000000     0.461720000000     0.0450841  
H83      H      0.665140000000     0.067030000000     0.535090000000     0.0450739  
H84      H      0.662940000000     0.936960000000     0.535120000000     0.0449124  
H85      H      0.460230000000     0.065890000000     0.664790000000     0.0450513  
H86      H      0.461270000000     0.935810000000     0.663270000000     0.0448757  
H87      H      0.534330000000     0.936320000000     0.664290000000     0.0449461  
H88      H      0.533590000000     0.066390000000     0.665800000000     0.0449965  
H89      H      0.794690000000     0.046960000000     0.709700000000     0.0405663  
H90      H      0.793440000000     0.952290000000     0.620800000000     0.0413594  
H91      H      0.867280000000     0.952330000000     0.619720000000     0.0422715  
H92      H      0.868520000000     0.045680000000     0.710020000000     0.0420385  
H93      H      0.620310000000     0.952020000000     0.794790000000     0.0415913  
H94      H      0.709270000000     0.046660000000     0.795470000000     0.040838   
H95      H      0.709910000000     0.045530000000     0.869290000000     0.0417845  
H96      H      0.619550000000     0.952230000000     0.868640000000     0.0420742  
H97      H      0.281980000000     0.790470000000     0.948310000000     0.0411164  
H98      H      0.371130000000     0.789600000000     0.042760000000     0.0417414  
H99      H      0.372160000000     0.863370000000     0.042460000000     0.0411177  
H100     H      0.281620000000     0.864390000000     0.949360000000     0.0417037  
H101     H      0.124600000000     0.706200000000     0.949730000000     0.0422754  
H102     H      0.124620000000     0.615940000000     0.043120000000     0.0422225  
H103     H      0.198490000000     0.615810000000     0.042960000000     0.0416922  
H104     H      0.198380000000     0.704680000000     0.948250000000     0.0412701  
H105     H      0.458380000000     0.661350000000     0.058250000000     0.0445931  
H106     H      0.458610000000     0.663500000000     0.928190000000     0.0448355  
H107     H      0.531980000000     0.664860000000     0.928440000000     0.0448727  
H108     H      0.531430000000     0.662710000000     0.058500000000     0.0446071  
H109     H      0.616700000000     0.794360000000     0.041510000000     0.0418511  
H110     H      0.707360000000     0.794820000000     0.948500000000     0.0419024  
H111     H      0.708920000000     0.868640000000     0.950450000000     0.0421761  
H112     H      0.616920000000     0.868140000000     0.042140000000     0.0421999  
H113     H      0.791920000000     0.709540000000     0.043920000000     0.0420333  
H114     H      0.791760000000     0.619920000000     0.949920000000     0.0421518  
H115     H      0.865510000000     0.618470000000     0.951130000000     0.0424765  
H116     H      0.865790000000     0.709440000000     0.043830000000     0.0422004  
H117     H      0.328980000000     0.456170000000     0.928900000000     0.0448202  
H118     H      0.330590000000     0.457180000000     0.058970000000     0.0445958  
H119     H      0.329920000000     0.530230000000     0.058490000000     0.0446942  
H120     H      0.328320000000     0.529560000000     0.928430000000     0.0448498  
H121     H      0.128220000000     0.278710000000     0.948920000000     0.0417255  
H122     H      0.128630000000     0.371490000000     0.039790000000     0.04125    
H123     H      0.202320000000     0.370410000000     0.040680000000     0.0419978  
H124     H      0.202190000000     0.278960000000     0.948460000000     0.0418709  
H125     H      0.379670000000     0.196460000000     0.951990000000     0.0419614  
H126     H      0.288710000000     0.196710000000     0.044710000000     0.0422968  
H127     H      0.287900000000     0.122920000000     0.044070000000     0.0413625  
H128     H      0.380190000000     0.122600000000     0.952700000000     0.0419937  
H129     H      0.663640000000     0.534040000000     0.930830000000     0.0447665  
H130     H      0.663190000000     0.535020000000     0.060910000000     0.0448232  
H131     H      0.664270000000     0.461850000000     0.061470000000     0.0447011  
H132     H      0.664740000000     0.460800000000     0.931390000000     0.0449179  
H133     H      0.535850000000     0.330460000000     0.933250000000     0.0448225  
H134     H      0.535230000000     0.328360000000     0.063320000000     0.0448699  
H135     H      0.461890000000     0.327340000000     0.062860000000     0.0449421  
H136     H      0.462780000000     0.329440000000     0.932800000000     0.0447575  
H137     H      0.796070000000     0.377250000000     0.043110000000     0.0420102  
H138     H      0.795130000000     0.286450000000     0.950240000000     0.04191    
H139     H      0.868890000000     0.285310000000     0.950610000000     0.0408322  
H140     H      0.869970000000     0.377460000000     0.042130000000     0.0418472  
H141     H      0.621330000000     0.201430000000     0.952300000000     0.042025   
H142     H      0.711280000000     0.201070000000     0.045980000000     0.0419281  
H143     H      0.711400000000     0.127180000000     0.045510000000     0.042256   
H144     H      0.620100000000     0.127680000000     0.953130000000     0.0425193  
O1       O      0.604860000000     0.330870000000     0.964640000000    -0.384119   
O2       O      0.726720000000     0.329480000000     0.963720000000    -0.381917   
O3       O      0.664770000000     0.269420000000     0.964910000000    -0.382705   
O4       O      0.666220000000     0.391400000000     0.963520000000    -0.382336   
O5       O      0.664670000000     0.392200000000     0.030710000000    -0.382097   
O6       O      0.668450000000     0.270250000000     0.032130000000    -0.379682   
O7       O      0.727360000000     0.333430000000     0.030930000000    -0.380645   
O8       O      0.605300000000     0.329570000000     0.031850000000    -0.38018    
O9       O      0.392340000000     0.326790000000     0.030630000000    -0.380889   
O10      O      0.270380000000     0.327180000000     0.028780000000    -0.38151    
O11      O      0.330960000000     0.265760000000     0.030820000000    -0.380061   
O12      O      0.331320000000     0.387710000000     0.028480000000    -0.382375   
O13      O      0.330160000000     0.386480000000     0.961290000000    -0.381491   
O14      O      0.335090000000     0.264510000000     0.963630000000    -0.381918   
O15      O      0.271340000000     0.322760000000     0.961610000000    -0.380538   
O16      O      0.393290000000     0.327680000000     0.963420000000    -0.383142   
O17      O      0.722750000000     0.667040000000     0.029640000000    -0.38002    
O18      O      0.600810000000     0.663830000000     0.027750000000    -0.382404   
O19      O      0.663160000000     0.604300000000     0.029000000000    -0.381751   
O20      O      0.659940000000     0.726160000000     0.028460000000    -0.381889   
O21      O      0.664060000000     0.725870000000     0.961270000000    -0.380885   
O22      O      0.662080000000     0.603800000000     0.961800000000    -0.38284    
O23      O      0.601750000000     0.665530000000     0.960560000000    -0.381466   
O24      O      0.723780000000     0.663530000000     0.962410000000    -0.382159   
O25      O      0.388610000000     0.661630000000     0.959880000000    -0.381293   
O26      O      0.266530000000     0.660670000000     0.961150000000    -0.381906   
O27      O      0.326380000000     0.721890000000     0.961080000000    -0.381442   
O28      O      0.328120000000     0.599740000000     0.959960000000    -0.381023   
O29      O      0.328980000000     0.599230000000     0.027170000000    -0.382909   
O30      O      0.328010000000     0.721110000000     0.028390000000    -0.380664   
O31      O      0.267340000000     0.659150000000     0.028470000000    -0.380546   
O32      O      0.389240000000     0.660800000000     0.027090000000    -0.382852   
O33      O      0.603300000000     0.967710000000     0.665170000000    -0.385683   
O34      O      0.725180000000     0.966630000000     0.664660000000    -0.383772   
O35      O      0.663890000000     0.966440000000     0.726170000000    -0.382072   
O36      O      0.664050000000     0.967990000000     0.604270000000    -0.385685   
O37      O      0.664790000000     0.035200000000     0.604990000000    -0.382291   
O38      O      0.665330000000     0.033750000000     0.727040000000    -0.381587   
O39      O      0.725870000000     0.033940000000     0.666370000000    -0.382837   
O40      O      0.603730000000     0.034920000000     0.666110000000    -0.381965   
O41      O      0.390640000000     0.033540000000     0.663880000000    -0.382325   
O42      O      0.268660000000     0.031460000000     0.664520000000    -0.381545   
O43      O      0.329370000000     0.031670000000     0.724990000000    -0.380695   
O44      O      0.329360000000     0.033090000000     0.602760000000    -0.380099   
O45      O      0.330690000000     0.965890000000     0.602190000000    -0.384731   
O46      O      0.331370000000     0.964370000000     0.724000000000    -0.382196   
O47      O      0.269780000000     0.964150000000     0.662790000000    -0.381508   
O48      O      0.391770000000     0.966330000000     0.662950000000    -0.384996   
O49      O      0.269500000000     0.961190000000     0.329660000000    -0.38156    
O50      O      0.391410000000     0.963760000000     0.330440000000    -0.384021   
O51      O      0.330000000000     0.964020000000     0.390830000000    -0.3839     
O52      O      0.331420000000     0.961070000000     0.268900000000    -0.381412   
O53      O      0.329120000000     0.028350000000     0.267340000000    -0.381658   
O54      O      0.328420000000     0.031200000000     0.389350000000    -0.380876   
O55      O      0.390080000000     0.030940000000     0.328780000000    -0.380802   
O56      O      0.268000000000     0.028470000000     0.327220000000    -0.380926   
O57      O      0.724860000000     0.034290000000     0.329910000000    -0.381103   
O58      O      0.602770000000     0.033460000000     0.331400000000    -0.382093   
O59      O      0.664390000000     0.034860000000     0.391890000000    -0.382115   
O60      O      0.662740000000     0.032870000000     0.269840000000    -0.381376   
O61      O      0.666460000000     0.965660000000     0.271000000000    -0.381717   
O62      O      0.662840000000     0.967670000000     0.392850000000    -0.385467   
O63      O      0.603440000000     0.966260000000     0.330370000000    -0.382793   
O64      O      0.725340000000     0.967100000000     0.334140000000    -0.383958   
O65      O      0.960200000000     0.665410000000     0.725870000000    -0.382097   
O66      O      0.959060000000     0.666170000000     0.603800000000    -0.38155    
O67      O      0.958740000000     0.604480000000     0.664340000000    -0.381147   
O68      O      0.960590000000     0.726640000000     0.665990000000    -0.381531   
O69      O      0.027900000000     0.725450000000     0.664460000000    -0.381431   
O70      O      0.025950000000     0.603640000000     0.663490000000    -0.383904   
O71      O      0.026260000000     0.665020000000     0.603210000000    -0.38328    
O72      O      0.027500000000     0.663480000000     0.725150000000    -0.380973   
O73      O      0.959690000000     0.391110000000     0.663260000000    -0.381446   
O74      O      0.962350000000     0.269050000000     0.660650000000    -0.381855   
O75      O      0.960730000000     0.328660000000     0.723290000000    -0.380599   
O76      O      0.961380000000     0.331070000000     0.601210000000    -0.38271    
O77      O      0.028590000000     0.330370000000     0.601820000000    -0.382259   
O78      O      0.027900000000     0.333250000000     0.723680000000    -0.3822     
O79      O      0.029560000000     0.270560000000     0.664310000000    -0.380691   
O80      O      0.026870000000     0.392420000000     0.661610000000    -0.383538   
O81      O      0.026730000000     0.662310000000     0.391550000000    -0.382964   
O82      O      0.028440000000     0.664260000000     0.269610000000    -0.380686   
O83      O      0.026950000000     0.723950000000     0.331790000000    -0.382169   
O84      O      0.028310000000     0.602060000000     0.329720000000    -0.381923   
O85      O      0.961110000000     0.601150000000     0.330900000000    -0.382496   
O86      O      0.959750000000     0.723250000000     0.327710000000    -0.380583   
O87      O      0.961230000000     0.660320000000     0.268670000000    -0.382285   
O88      O      0.959530000000     0.663640000000     0.390660000000    -0.381598   
O89      O      0.965970000000     0.326360000000     0.266650000000    -0.381614   
O90      O      0.963810000000     0.328530000000     0.388670000000    -0.38212    
O91      O      0.964020000000     0.388730000000     0.326850000000    -0.382463   
O92      O      0.965670000000     0.266820000000     0.328130000000    -0.382938   
O93      O      0.032980000000     0.267720000000     0.330260000000    -0.380022   
O94      O      0.031220000000     0.389780000000     0.328220000000    -0.382179   
O95      O      0.031010000000     0.329650000000     0.389880000000    -0.38286    
O96      O      0.033260000000     0.328220000000     0.267930000000    -0.379948   
O97      O      0.938900000000     0.363470000000     0.997800000000    -0.382389   
O98      O      0.060830000000     0.360160000000     0.995710000000    -0.384094   
O99      O      0.999180000000     0.363380000000     0.935300000000    -0.382065   
O100     O      0.001470000000     0.360270000000     0.057240000000    -0.38209    
O101     O      0.998460000000     0.293020000000     0.055460000000    -0.38027    
O102     O      0.996270000000     0.296130000000     0.933470000000    -0.383214   
O103     O      0.058920000000     0.292910000000     0.992920000000    -0.380063   
O104     O      0.936950000000     0.296210000000     0.994920000000    -0.383652   
O105     O      0.934590000000     0.696790000000     0.000450000000    -0.37871    
O106     O      0.056460000000     0.695430000000     0.994560000000    -0.381064   
O107     O      0.992620000000     0.696510000000     0.936600000000    -0.38202    
O108     O      0.998490000000     0.695740000000     0.058420000000    -0.381116   
O109     O      0.992490000000     0.628680000000     0.058070000000    -0.380937   
O110     O      0.997210000000     0.629340000000     0.936160000000    -0.381907   
O111     O      0.055760000000     0.628280000000     0.999470000000    -0.381669   
O112     O      0.933870000000     0.629710000000     0.994760000000    -0.381596   
O113     O      0.056920000000     0.994690000000     0.294500000000    -0.379975   
O114     O      0.934980000000     0.998170000000     0.297840000000    -0.38343    
O115     O      0.997120000000     0.056820000000     0.296680000000    -0.38264    
O116     O      0.993700000000     0.934890000000     0.295670000000    -0.3809     
O117     O      0.996650000000     0.934170000000     0.362940000000    -0.383523   
O118     O      0.000130000000     0.056120000000     0.363950000000    -0.377858   
O119     O      0.936930000000     0.996470000000     0.365130000000    -0.381099   
O120     O      0.058850000000     0.992920000000     0.361790000000    -0.382371   
O121     O      0.936330000000     0.995890000000     0.631050000000    -0.381476   
O122     O      0.058370000000     0.997130000000     0.630670000000    -0.381098   
O123     O      0.998390000000     0.936080000000     0.632190000000    -0.383724   
O124     O      0.996360000000     0.058020000000     0.629470000000    -0.379997   
O125     O      0.999570000000     0.059670000000     0.696710000000    -0.382526   
O126     O      0.995480000000     0.937700000000     0.699450000000    -0.380596   
O127     O      0.058470000000     0.997500000000     0.698020000000    -0.381385   
O128     O      0.936550000000     0.000890000000     0.698200000000    -0.380271   
O129     O      0.631600000000     0.059180000000     0.996390000000    -0.380577   
O130     O      0.630270000000     0.937280000000     0.000290000000    -0.37914    
O131     O      0.630890000000     0.000260000000     0.059360000000    -0.378498   
O132     O      0.631010000000     0.996200000000     0.937420000000    -0.381316   
O133     O      0.698190000000     0.000800000000     0.937570000000    -0.379542   
O134     O      0.697960000000     0.994300000000     0.059440000000    -0.379822   
O135     O      0.697400000000     0.936610000000     0.995120000000    -0.381037   
O136     O      0.698710000000     0.058490000000     0.001780000000    -0.377605   
O137     O      0.298690000000     0.055330000000     0.998680000000    -0.382952   
O138     O      0.294970000000     0.933440000000     0.994160000000    -0.380767   
O139     O      0.296670000000     0.993040000000     0.057300000000    -0.381111   
O140     O      0.296970000000     0.996860000000     0.935400000000    -0.382336   
O141     O      0.364080000000     0.991370000000     0.935420000000    -0.382015   
O142     O      0.364020000000     0.992150000000     0.057440000000    -0.380753   
O143     O      0.362200000000     0.931280000000     0.997300000000    -0.383837   
O144     O      0.365930000000     0.053200000000     0.995730000000    -0.380311   


