data_structure

_audit_creation_method RASPA-1.0
_audit_creation_date 2023-5-22
_audit_author_name 'Poobodin Mano'

_cell_length_a    43.4933
_cell_length_b    43.8793
_cell_length_c    37.9575
_cell_angle_alpha 90.0043
_cell_angle_beta  90.0001
_cell_angle_gamma 89.9978
_cell_volume      72440.2

_symmetry_cell_setting          triclinic
_symmetry_space_group_name_Hall 'P 1'
_symmetry_space_group_name_H-M  'P 1'
_symmetry_Int_Tables_number     1

_symmetry_equiv_pos_as_xyz 'x,y,z'

loop_
_atom_site_label
_atom_site_type_symbol
_atom_site_fract_x
_atom_site_fract_y
_atom_site_fract_z
_atom_site_charge
C1       C      0.479290000000     0.309410000000     0.535200000000     0.420142   
C2       C      0.979310000000     0.193660000000     0.034970000000     0.419659   
C3       C      0.037740000000     0.251590000000     0.035110000000     0.418224   
C4       C      0.420860000000     0.251500000000     0.535050000000     0.418383   
C5       C      0.479290000000     0.309410000000     0.284970000000     0.420221   
C6       C      0.979320000000     0.193660000000     0.285190000000     0.419734   
C7       C      0.037740000000     0.251590000000     0.285060000000     0.417999   
C8       C      0.420860000000     0.251500000000     0.285110000000     0.418301   
C9       C      0.229280000000     0.309520000000     0.035090000000     0.420571   
C10      C      0.229320000000     0.193770000000     0.035080000000     0.419784   
C11      C      0.287740000000     0.251650000000     0.035090000000     0.418293   
C12      C      0.170860000000     0.251600000000     0.535070000000     0.418402   
C13      C      0.229280000000     0.309520000000     0.285080000000     0.420689   
C14      C      0.229320000000     0.193770000000     0.285080000000     0.419839   
C15      C      0.287740000000     0.251650000000     0.285070000000     0.418364   
C16      C      0.170860000000     0.251600000000     0.285090000000     0.4184     
C17      C      0.479230000000     0.441020000000     0.535180000000     0.346411   
C18      C      0.479370000000     0.062050000000     0.034990000000     0.346314   
C19      C      0.443650000000     0.001650000000     0.091200000000     0.354939   
C20      C      0.514950000000     0.501420000000     0.478970000000     0.354172   
C21      C      0.479230000000     0.441020000000     0.284980000000     0.346401   
C22      C      0.479380000000     0.062050000000     0.285180000000     0.345966   
C23      C      0.514960000000     0.001420000000     0.341190000000     0.355036   
C24      C      0.443650000000     0.501660000000     0.228970000000     0.354379   
C25      C      0.229280000000     0.441120000000     0.535090000000     0.346281   
C26      C      0.229310000000     0.062150000000     0.035080000000     0.346371   
C27      C      0.193650000000     0.001660000000     0.091200000000     0.355129   
C28      C      0.264950000000     0.501620000000     0.478970000000     0.354384   
C29      C      0.229310000000     0.062150000000     0.285080000000     0.346295   
C30      C      0.229290000000     0.441120000000     0.285080000000     0.346623   
C31      C      0.193650000000     0.501650000000     0.228970000000     0.354313   
C32      C      0.264950000000     0.001640000000     0.341200000000     0.355184   
C33      C      0.285690000000     0.029240000000     0.428460000000    -0.000772358
C34      C      0.282980000000     0.501610000000     0.446700000000    -0.0840803  
C35      C      0.285680000000     0.474000000000     0.428430000000    -0.00137196 
C36      C      0.285690000000     0.474010000000     0.391710000000    -0.00141303 
C37      C      0.282990000000     0.001630000000     0.373460000000    -0.0890843  
C38      C      0.285700000000     0.029250000000     0.391730000000    -0.000714779
C39      C      0.172900000000     0.474050000000     0.141710000000    -0.00134726 
C40      C      0.175610000000     0.001670000000     0.123460000000    -0.0890042  
C41      C      0.172920000000     0.029290000000     0.141730000000    -0.000771338
C42      C      0.172920000000     0.029280000000     0.178460000000    -0.000786571
C43      C      0.175610000000     0.501650000000     0.196710000000    -0.0840745  
C44      C      0.172890000000     0.474040000000     0.178440000000    -0.00128598 
C45      C      0.035590000000     0.473740000000     0.428450000000    -0.000990605
C46      C      0.532990000000     0.501370000000     0.446700000000    -0.0839486  
C47      C      0.535790000000     0.028970000000     0.428440000000    -0.000777545
C48      C      0.535790000000     0.028960000000     0.391710000000    -0.000742743
C49      C      0.532990000000     0.001350000000     0.373460000000    -0.0890135  
C50      C      0.035600000000     0.473730000000     0.391720000000    -0.000992434
C51      C      0.923010000000     0.029340000000     0.141720000000    -0.000754813
C52      C      0.425620000000     0.001710000000     0.123460000000    -0.0889829  
C53      C      0.422820000000     0.474100000000     0.141730000000    -0.00148007 
C54      C      0.422810000000     0.474110000000     0.178450000000    -0.00141516 
C55      C      0.425610000000     0.501720000000     0.196710000000    -0.084119   
C56      C      0.923000000000     0.029340000000     0.178440000000    -0.000665234
C57      C      0.241780000000     0.143870000000     0.256540000000     0.008546   
C58      C      0.229320000000     0.160110000000     0.285090000000    -0.109082   
C59      C      0.216870000000     0.143880000000     0.313630000000     0.00856119 
C60      C      0.216540000000     0.112030000000     0.313440000000    -0.0118585  
C61      C      0.229320000000     0.095810000000     0.285090000000    -0.0769267  
C62      C      0.242100000000     0.112020000000     0.256730000000    -0.0118541  
C63      C      0.242180000000     0.391250000000     0.256800000000    -0.0121884  
C64      C      0.229280000000     0.407470000000     0.285080000000    -0.0766802  
C65      C      0.216380000000     0.391250000000     0.313360000000    -0.0120935  
C66      C      0.216700000000     0.359400000000     0.313560000000     0.00976568 
C67      C      0.229280000000     0.343170000000     0.285080000000    -0.109559   
C68      C      0.241860000000     0.359400000000     0.256610000000     0.0097693  
C69      C      0.216870000000     0.143880000000     0.506530000000     0.00853537 
C70      C      0.229330000000     0.160110000000     0.035070000000    -0.109136   
C71      C      0.241780000000     0.143880000000     0.063620000000     0.00859167 
C72      C      0.242100000000     0.112020000000     0.063430000000    -0.0117898  
C73      C      0.229320000000     0.095810000000     0.035070000000    -0.0770471  
C74      C      0.216540000000     0.112020000000     0.506720000000    -0.0118794  
C75      C      0.241850000000     0.359400000000     0.063570000000     0.00984586 
C76      C      0.229270000000     0.343170000000     0.535100000000    -0.109593   
C77      C      0.216690000000     0.359400000000     0.506620000000     0.00981433 
C78      C      0.216380000000     0.391250000000     0.506810000000    -0.0122223  
C79      C      0.229280000000     0.407470000000     0.535100000000    -0.0764971  
C80      C      0.242180000000     0.391250000000     0.063380000000    -0.0122239  
C81      C      0.249090000000     0.232430000000     0.428570000000     0.0377545  
C82      C      0.229210000000     0.251680000000     0.447230000000    -0.252264   
C83      C      0.209330000000     0.270930000000     0.428560000000     0.0377474  
C84      C      0.209330000000     0.270930000000     0.391610000000     0.0377557  
C85      C      0.229210000000     0.251680000000     0.372930000000    -0.252323   
C86      C      0.249100000000     0.232430000000     0.391600000000     0.0376685  
C87      C      0.209520000000     0.232410000000     0.141600000000     0.0377865  
C88      C      0.229390000000     0.251680000000     0.122930000000    -0.252398   
C89      C      0.249260000000     0.270940000000     0.141610000000     0.0378628  
C90      C      0.249260000000     0.270940000000     0.178570000000     0.0378081  
C91      C      0.229390000000     0.251680000000     0.197240000000    -0.252274   
C92      C      0.209520000000     0.232410000000     0.178570000000     0.0377268  
C93      C      0.492240000000     0.111930000000     0.256900000000    -0.0122315  
C94      C      0.479400000000     0.095710000000     0.285210000000    -0.0765785  
C95      C      0.966570000000     0.111920000000     0.313540000000    -0.0124983  
C96      C      0.966880000000     0.143770000000     0.313740000000     0.00889592 
C97      C      0.979370000000     0.160000000000     0.285220000000    -0.109082   
C98      C      0.491900000000     0.143780000000     0.256710000000     0.00942679 
C99      C      0.966690000000     0.359290000000     0.313450000000     0.00930696 
C100     C      0.479230000000     0.343070000000     0.284950000000    -0.109265   
C101     C      0.491740000000     0.359300000000     0.256440000000     0.00887773 
C102     C      0.492050000000     0.391160000000     0.256630000000    -0.0118628  
C103     C      0.479200000000     0.407370000000     0.284950000000    -0.0768318  
C104     C      0.966350000000     0.391150000000     0.313260000000    -0.0126256  
C105     C      0.370360000000     0.251320000000     0.316980000000     0.00121791 
C106     C      0.386810000000     0.251550000000     0.285070000000    -0.103895   
C107     C      0.370370000000     0.251860000000     0.253190000000     0.00112348 
C108     C      0.338250000000     0.251900000000     0.253210000000     0.00125377 
C109     C      0.321790000000     0.251640000000     0.285120000000    -0.103917   
C110     C      0.338230000000     0.251360000000     0.317000000000     0.00114224 
C111     C      0.088240000000     0.251260000000     0.253190000000     0.00117397 
C112     C      0.071790000000     0.251570000000     0.285100000000    -0.103495   
C113     C      0.088230000000     0.251850000000     0.316980000000     0.00103018 
C114     C      0.120360000000     0.251860000000     0.316960000000     0.00140524 
C115     C      0.136810000000     0.251580000000     0.285050000000    -0.103938   
C116     C      0.120370000000     0.251270000000     0.253170000000     0.00126407 
C117     C      0.491900000000     0.143790000000     0.063460000000     0.00934786 
C118     C      0.979360000000     0.160000000000     0.034950000000    -0.109103   
C119     C      0.966870000000     0.143770000000     0.506430000000     0.00884296 
C120     C      0.966560000000     0.111910000000     0.506630000000    -0.0124202  
C121     C      0.979400000000     0.095700000000     0.034960000000    -0.0759442  
C122     C      0.492230000000     0.111930000000     0.063270000000    -0.0120232  
C123     C      0.466690000000     0.359290000000     0.506720000000     0.00931733 
C124     C      0.479240000000     0.343070000000     0.535220000000    -0.109198   
C125     C      0.991750000000     0.359310000000     0.063730000000     0.0073607  
C126     C      0.992060000000     0.391160000000     0.063530000000    -0.0138593  
C127     C      0.479210000000     0.407370000000     0.535210000000    -0.076878   
C128     C      0.466360000000     0.391140000000     0.506910000000    -0.0120735  
C129     C      0.370360000000     0.251320000000     0.503190000000     0.00126379 
C130     C      0.386810000000     0.251560000000     0.535100000000    -0.103922   
C131     C      0.370370000000     0.251860000000     0.066980000000     0.00118924 
C132     C      0.338240000000     0.251910000000     0.066960000000     0.0012671  
C133     C      0.321790000000     0.251640000000     0.035050000000    -0.103939   
C134     C      0.338230000000     0.251360000000     0.503170000000     0.00111474 
C135     C      0.088240000000     0.251270000000     0.066980000000     0.0012662  
C136     C      0.071790000000     0.251570000000     0.035070000000    -0.103681   
C137     C      0.088230000000     0.251850000000     0.503190000000     0.00108915 
C138     C      0.120360000000     0.251860000000     0.503210000000     0.00136985 
C139     C      0.136810000000     0.251570000000     0.035120000000    -0.103976   
C140     C      0.120370000000     0.251270000000     0.067000000000     0.00127231 
C141     C      0.999130000000     0.232420000000     0.428570000000     0.0358357  
C142     C      0.479240000000     0.251670000000     0.447230000000    -0.25217    
C143     C      0.459360000000     0.270920000000     0.428570000000     0.0377772  
C144     C      0.459360000000     0.270930000000     0.391610000000     0.0377493  
C145     C      0.979240000000     0.251670000000     0.372930000000    -0.25175    
C146     C      0.999130000000     0.232420000000     0.391600000000     0.0359987  
C147     C      0.459480000000     0.270670000000     0.141600000000     0.0378365  
C148     C      0.979360000000     0.251410000000     0.122930000000    -0.252015   
C149     C      0.999230000000     0.232140000000     0.141600000000     0.0361268  
C150     C      0.999230000000     0.232140000000     0.178560000000     0.0359622  
C151     C      0.479360000000     0.251400000000     0.197230000000    -0.252022   
C152     C      0.459480000000     0.270670000000     0.178570000000     0.0375779  
C153     C      0.479290000000     0.309410000000     0.035200000000     0.420076   
C154     C      0.979310000000     0.193660000000     0.534970000000     0.419713   
C155     C      0.037740000000     0.251590000000     0.535110000000     0.418283   
C156     C      0.420860000000     0.251510000000     0.035050000000     0.418323   
C157     C      0.479280000000     0.309410000000     0.784970000000     0.420205   
C158     C      0.979320000000     0.193660000000     0.785190000000     0.419738   
C159     C      0.037740000000     0.251590000000     0.785050000000     0.418016   
C160     C      0.420860000000     0.251500000000     0.785110000000     0.418373   
C161     C      0.229280000000     0.309520000000     0.535090000000     0.420637   
C162     C      0.229320000000     0.193770000000     0.535080000000     0.419851   
C163     C      0.287740000000     0.251650000000     0.535090000000     0.418366   
C164     C      0.170860000000     0.251600000000     0.035070000000     0.418335   
C165     C      0.229280000000     0.309520000000     0.785080000000     0.420647   
C166     C      0.229320000000     0.193770000000     0.785080000000     0.419588   
C167     C      0.287740000000     0.251650000000     0.785080000000     0.418268   
C168     C      0.170860000000     0.251600000000     0.785090000000     0.418408   
C169     C      0.479230000000     0.441020000000     0.035180000000     0.346339   
C170     C      0.479370000000     0.062050000000     0.534990000000     0.346192   
C171     C      0.443650000000     0.001650000000     0.591200000000     0.355119   
C172     C      0.514950000000     0.501420000000     0.978970000000     0.353597   
C173     C      0.479220000000     0.441020000000     0.784980000000     0.346408   
C174     C      0.479380000000     0.062050000000     0.785180000000     0.346183   
C175     C      0.514950000000     0.001420000000     0.841200000000     0.355032   
C176     C      0.443650000000     0.501660000000     0.728970000000     0.354426   
C177     C      0.229280000000     0.441120000000     0.035090000000     0.346389   
C178     C      0.229310000000     0.062150000000     0.535070000000     0.346102   
C179     C      0.193650000000     0.001660000000     0.591200000000     0.355118   
C180     C      0.264950000000     0.501620000000     0.978970000000     0.35362    
C181     C      0.229310000000     0.062150000000     0.785090000000     0.34628    
C182     C      0.229290000000     0.441120000000     0.785080000000     0.346239   
C183     C      0.193650000000     0.501650000000     0.728970000000     0.354254   
C184     C      0.264950000000     0.001640000000     0.841200000000     0.354914   
C185     C      0.285690000000     0.029240000000     0.928460000000    -0.000865358
C186     C      0.282980000000     0.501610000000     0.946700000000    -0.0839553  
C187     C      0.285680000000     0.474000000000     0.928430000000    -0.00149392 
C188     C      0.285690000000     0.474010000000     0.891710000000    -0.00141469 
C189     C      0.282990000000     0.001630000000     0.873460000000    -0.0890144  
C190     C      0.285700000000     0.029250000000     0.891730000000    -0.000749799
C191     C      0.172900000000     0.474050000000     0.641710000000    -0.00129537 
C192     C      0.175610000000     0.001670000000     0.623460000000    -0.0890145  
C193     C      0.172920000000     0.029290000000     0.641730000000    -0.000764193
C194     C      0.172920000000     0.029280000000     0.678460000000    -0.000796056
C195     C      0.175610000000     0.501650000000     0.696710000000    -0.083978   
C196     C      0.172890000000     0.474040000000     0.678440000000    -0.00133775 
C197     C      0.035590000000     0.473730000000     0.928450000000    -0.00125987 
C198     C      0.532990000000     0.501370000000     0.946700000000    -0.0838605  
C199     C      0.535790000000     0.028970000000     0.928440000000    -0.000897955
C200     C      0.535790000000     0.028960000000     0.891710000000    -0.000728849
C201     C      0.532990000000     0.001350000000     0.873460000000    -0.0890532  
C202     C      0.035600000000     0.473730000000     0.891720000000    -0.00089093 
C203     C      0.923010000000     0.029340000000     0.641720000000    -0.000739037
C204     C      0.425620000000     0.001710000000     0.623460000000    -0.0890781  
C205     C      0.422820000000     0.474100000000     0.641730000000    -0.00146552 
C206     C      0.422810000000     0.474110000000     0.678450000000    -0.0013949  
C207     C      0.425620000000     0.501720000000     0.696710000000    -0.0841735  
C208     C      0.923000000000     0.029340000000     0.678440000000    -0.000642445
C209     C      0.241780000000     0.143870000000     0.756540000000     0.00850262 
C210     C      0.229320000000     0.160110000000     0.785090000000    -0.108988   
C211     C      0.216870000000     0.143880000000     0.813630000000     0.00854057 
C212     C      0.216540000000     0.112030000000     0.813440000000    -0.0118641  
C213     C      0.229320000000     0.095810000000     0.785090000000    -0.0769313  
C214     C      0.242100000000     0.112020000000     0.756730000000    -0.011829   
C215     C      0.242180000000     0.391250000000     0.756800000000    -0.0122873  
C216     C      0.229280000000     0.407470000000     0.785080000000    -0.0764735  
C217     C      0.216380000000     0.391250000000     0.813370000000    -0.0122839  
C218     C      0.216700000000     0.359400000000     0.813560000000     0.00985102 
C219     C      0.229280000000     0.343170000000     0.785080000000    -0.109609   
C220     C      0.241860000000     0.359400000000     0.756610000000     0.00982835 
C221     C      0.216870000000     0.143880000000     0.006530000000     0.00908837 
C222     C      0.229330000000     0.160110000000     0.535070000000    -0.109082   
C223     C      0.241780000000     0.143880000000     0.563620000000     0.00858019 
C224     C      0.242100000000     0.112020000000     0.563430000000    -0.0118716  
C225     C      0.229320000000     0.095810000000     0.535070000000    -0.0768585  
C226     C      0.216540000000     0.112020000000     0.006720000000    -0.0112566  
C227     C      0.241850000000     0.359400000000     0.563570000000     0.00982617 
C228     C      0.229270000000     0.343170000000     0.035100000000    -0.109642   
C229     C      0.216690000000     0.359400000000     0.006620000000     0.0103533  
C230     C      0.216380000000     0.391250000000     0.006810000000    -0.0116224  
C231     C      0.229280000000     0.407470000000     0.035100000000    -0.0766227  
C232     C      0.242180000000     0.391250000000     0.563380000000    -0.0122871  
C233     C      0.249100000000     0.232430000000     0.928570000000     0.0374321  
C234     C      0.229210000000     0.251680000000     0.947240000000    -0.251905   
C235     C      0.209330000000     0.270940000000     0.928570000000     0.0374279  
C236     C      0.209330000000     0.270930000000     0.891610000000     0.037915   
C237     C      0.229210000000     0.251680000000     0.872930000000    -0.252476   
C238     C      0.249100000000     0.232430000000     0.891600000000     0.0378163  
C239     C      0.209520000000     0.232410000000     0.641600000000     0.0377184  
C240     C      0.229390000000     0.251680000000     0.622930000000    -0.252268   
C241     C      0.249260000000     0.270940000000     0.641610000000     0.0378424  
C242     C      0.249260000000     0.270940000000     0.678560000000     0.0377307  
C243     C      0.229390000000     0.251670000000     0.697240000000    -0.25225    
C244     C      0.209520000000     0.232410000000     0.678570000000     0.0378047  
C245     C      0.492240000000     0.111930000000     0.756900000000    -0.012145   
C246     C      0.479400000000     0.095700000000     0.785210000000    -0.0767615  
C247     C      0.966570000000     0.111920000000     0.813540000000    -0.0123667  
C248     C      0.966880000000     0.143770000000     0.813740000000     0.00882247 
C249     C      0.979370000000     0.160000000000     0.785220000000    -0.109042   
C250     C      0.491900000000     0.143780000000     0.756710000000     0.00938327 
C251     C      0.966690000000     0.359290000000     0.813450000000     0.00931634 
C252     C      0.479230000000     0.343070000000     0.784950000000    -0.109236   
C253     C      0.491740000000     0.359300000000     0.756440000000     0.00886769 
C254     C      0.492050000000     0.391160000000     0.756630000000    -0.011846   
C255     C      0.479200000000     0.407370000000     0.784950000000    -0.0768535  
C256     C      0.966350000000     0.391140000000     0.813260000000    -0.01263    
C257     C      0.370360000000     0.251320000000     0.816980000000     0.00125449 
C258     C      0.386810000000     0.251550000000     0.785070000000    -0.103924   
C259     C      0.370370000000     0.251860000000     0.753190000000     0.00114705 
C260     C      0.338240000000     0.251900000000     0.753210000000     0.00120622 
C261     C      0.321800000000     0.251640000000     0.785120000000    -0.103782   
C262     C      0.338230000000     0.251360000000     0.817000000000     0.00106763 
C263     C      0.088240000000     0.251270000000     0.753190000000     0.0011721  
C264     C      0.071790000000     0.251570000000     0.785100000000    -0.103508   
C265     C      0.088230000000     0.251850000000     0.816980000000     0.00103657 
C266     C      0.120360000000     0.251860000000     0.816960000000     0.00139541 
C267     C      0.136810000000     0.251580000000     0.785050000000    -0.10394    
C268     C      0.120370000000     0.251270000000     0.753170000000     0.00126599 
C269     C      0.491890000000     0.143790000000     0.563460000000     0.00937257 
C270     C      0.979360000000     0.160000000000     0.534950000000    -0.10903    
C271     C      0.966870000000     0.143770000000     0.006430000000     0.0093856  
C272     C      0.966560000000     0.111910000000     0.006630000000    -0.0118098  
C273     C      0.979400000000     0.095700000000     0.534960000000    -0.0758167  
C274     C      0.492230000000     0.111930000000     0.563270000000    -0.0121115  
C275     C      0.466690000000     0.359290000000     0.006720000000     0.00985564 
C276     C      0.479240000000     0.343070000000     0.035220000000    -0.109256   
C277     C      0.991750000000     0.359310000000     0.563730000000     0.00731073 
C278     C      0.992050000000     0.391160000000     0.563530000000    -0.0138752  
C279     C      0.479210000000     0.407370000000     0.035210000000    -0.0769293  
C280     C      0.466360000000     0.391140000000     0.006910000000    -0.0115     
C281     C      0.370360000000     0.251320000000     0.003190000000     0.00183465 
C282     C      0.386810000000     0.251560000000     0.035100000000    -0.103996   
C283     C      0.370370000000     0.251860000000     0.566980000000     0.00113798 
C284     C      0.338240000000     0.251910000000     0.566960000000     0.00125228 
C285     C      0.321790000000     0.251640000000     0.535050000000    -0.103905   
C286     C      0.338230000000     0.251360000000     0.003160000000     0.00161948 
C287     C      0.088240000000     0.251260000000     0.566980000000     0.00122914 
C288     C      0.071790000000     0.251570000000     0.535070000000    -0.103611   
C289     C      0.088230000000     0.251850000000     0.003190000000     0.00165165 
C290     C      0.120360000000     0.251860000000     0.003210000000     0.00192819 
C291     C      0.136810000000     0.251570000000     0.535120000000    -0.103917   
C292     C      0.120370000000     0.251270000000     0.567000000000     0.00124579 
C293     C      0.999130000000     0.232420000000     0.928570000000     0.0356306  
C294     C      0.479240000000     0.251670000000     0.947240000000    -0.251963   
C295     C      0.459360000000     0.270920000000     0.928570000000     0.0375996  
C296     C      0.459360000000     0.270930000000     0.891610000000     0.0377756  
C297     C      0.979240000000     0.251670000000     0.872930000000    -0.251849   
C298     C      0.999130000000     0.232420000000     0.891600000000     0.0360657  
C299     C      0.459480000000     0.270670000000     0.641600000000     0.0377188  
C300     C      0.979370000000     0.251410000000     0.622930000000    -0.251792   
C301     C      0.999230000000     0.232140000000     0.641600000000     0.0360931  
C302     C      0.999230000000     0.232140000000     0.678560000000     0.0359966  
C303     C      0.479360000000     0.251410000000     0.697240000000    -0.2523     
C304     C      0.459480000000     0.270660000000     0.678570000000     0.0378369  
C305     C      0.479290000000     0.809410000000     0.535200000000     0.420212   
C306     C      0.979310000000     0.693660000000     0.034970000000     0.419642   
C307     C      0.037740000000     0.751590000000     0.035110000000     0.418227   
C308     C      0.420860000000     0.751500000000     0.535050000000     0.418387   
C309     C      0.479280000000     0.809410000000     0.284970000000     0.420257   
C310     C      0.979320000000     0.693660000000     0.285190000000     0.419718   
C311     C      0.037740000000     0.751590000000     0.285060000000     0.418054   
C312     C      0.420860000000     0.751500000000     0.285110000000     0.418356   
C313     C      0.229280000000     0.809520000000     0.035090000000     0.42064    
C314     C      0.229320000000     0.693770000000     0.035080000000     0.419761   
C315     C      0.287740000000     0.751650000000     0.035090000000     0.418293   
C316     C      0.170860000000     0.751600000000     0.535070000000     0.41839    
C317     C      0.229280000000     0.809520000000     0.285080000000     0.420763   
C318     C      0.229320000000     0.693770000000     0.285080000000     0.419811   
C319     C      0.287740000000     0.751650000000     0.285070000000     0.418365   
C320     C      0.170860000000     0.751600000000     0.285090000000     0.418398   
C321     C      0.479230000000     0.941020000000     0.535180000000     0.345495   
C322     C      0.479370000000     0.562050000000     0.034990000000     0.346544   
C323     C      0.443650000000     0.501650000000     0.091200000000     0.354199   
C324     C      0.514950000000     0.001420000000     0.478970000000     0.355335   
C325     C      0.479220000000     0.941020000000     0.284980000000     0.345679   
C326     C      0.479380000000     0.562050000000     0.285180000000     0.346206   
C327     C      0.514950000000     0.501420000000     0.341190000000     0.354354   
C328     C      0.443650000000     0.001660000000     0.228970000000     0.355176   
C329     C      0.229280000000     0.941120000000     0.535090000000     0.345477   
C330     C      0.229310000000     0.562150000000     0.035080000000     0.346659   
C331     C      0.193650000000     0.501660000000     0.091200000000     0.354363   
C332     C      0.264950000000     0.001620000000     0.478970000000     0.3551     
C333     C      0.229310000000     0.562150000000     0.285080000000     0.346617   
C334     C      0.229290000000     0.941120000000     0.285080000000     0.345691   
C335     C      0.193650000000     0.001650000000     0.228970000000     0.355038   
C336     C      0.264950000000     0.501640000000     0.341200000000     0.354181   
C337     C      0.285690000000     0.529240000000     0.428460000000    -0.00141049 
C338     C      0.282980000000     0.001610000000     0.446700000000    -0.0890138  
C339     C      0.285690000000     0.974000000000     0.428430000000     0.00326036 
C340     C      0.285690000000     0.974010000000     0.391710000000     0.00330245 
C341     C      0.282990000000     0.501630000000     0.373460000000    -0.0840223  
C342     C      0.285700000000     0.529250000000     0.391730000000    -0.0014283  
C343     C      0.172900000000     0.974050000000     0.141710000000     0.00333827 
C344     C      0.175610000000     0.501670000000     0.123460000000    -0.0840117  
C345     C      0.172920000000     0.529290000000     0.141730000000    -0.00149088 
C346     C      0.172920000000     0.529270000000     0.178460000000    -0.00135139 
C347     C      0.175610000000     0.001650000000     0.196710000000    -0.088986   
C348     C      0.172890000000     0.974040000000     0.178440000000     0.00335529 
C349     C      0.035590000000     0.973730000000     0.428450000000     0.00356684 
C350     C      0.532990000000     0.001360000000     0.446700000000    -0.089044   
C351     C      0.535790000000     0.528970000000     0.428440000000    -0.00145962 
C352     C      0.535790000000     0.528960000000     0.391710000000    -0.00141579 
C353     C      0.532990000000     0.501350000000     0.373460000000    -0.0840079  
C354     C      0.035600000000     0.973730000000     0.391720000000     0.00371311 
C355     C      0.923010000000     0.529340000000     0.141720000000    -0.00143171 
C356     C      0.425620000000     0.501710000000     0.123460000000    -0.0840398  
C357     C      0.422820000000     0.974100000000     0.141730000000     0.00315813 
C358     C      0.422810000000     0.974110000000     0.178450000000     0.00328821 
C359     C      0.425620000000     0.001720000000     0.196710000000    -0.0891526  
C360     C      0.923010000000     0.529340000000     0.178440000000    -0.00128753 
C361     C      0.241780000000     0.643870000000     0.256540000000     0.00849242 
C362     C      0.229320000000     0.660110000000     0.285090000000    -0.109063   
C363     C      0.216870000000     0.643880000000     0.313630000000     0.0085042  
C364     C      0.216540000000     0.612030000000     0.313440000000    -0.0117561  
C365     C      0.229320000000     0.595800000000     0.285090000000    -0.077139   
C366     C      0.242100000000     0.612020000000     0.256730000000    -0.0117651  
C367     C      0.242180000000     0.891250000000     0.256800000000    -0.0124027  
C368     C      0.229280000000     0.907470000000     0.285080000000    -0.0757064  
C369     C      0.216380000000     0.891250000000     0.313360000000    -0.0123064  
C370     C      0.216700000000     0.859400000000     0.313560000000     0.0100817  
C371     C      0.229280000000     0.843170000000     0.285080000000    -0.109651   
C372     C      0.241860000000     0.859400000000     0.256610000000     0.0100861  
C373     C      0.216870000000     0.643880000000     0.506530000000     0.00852574 
C374     C      0.229330000000     0.660110000000     0.035070000000    -0.109124   
C375     C      0.241780000000     0.643880000000     0.063620000000     0.0085387  
C376     C      0.242100000000     0.612020000000     0.063430000000    -0.011707   
C377     C      0.229320000000     0.595800000000     0.035070000000    -0.0772358  
C378     C      0.216540000000     0.612020000000     0.506720000000    -0.0118568  
C379     C      0.241850000000     0.859400000000     0.063570000000     0.0101301  
C380     C      0.229270000000     0.843170000000     0.535100000000    -0.109657   
C381     C      0.216690000000     0.859400000000     0.506620000000     0.0101069  
C382     C      0.216380000000     0.891250000000     0.506810000000    -0.0123992  
C383     C      0.229280000000     0.907470000000     0.535100000000    -0.0755987  
C384     C      0.242180000000     0.891250000000     0.063380000000    -0.0123989  
C385     C      0.249100000000     0.732430000000     0.428570000000     0.037651   
C386     C      0.229210000000     0.751680000000     0.447230000000    -0.252175   
C387     C      0.209330000000     0.770930000000     0.428560000000     0.0377609  
C388     C      0.209330000000     0.770940000000     0.391610000000     0.0376959  
C389     C      0.229210000000     0.751680000000     0.372930000000    -0.252293   
C390     C      0.249100000000     0.732430000000     0.391600000000     0.0376986  
C391     C      0.209520000000     0.732410000000     0.141600000000     0.0377542  
C392     C      0.229390000000     0.751680000000     0.122930000000    -0.252396   
C393     C      0.249260000000     0.770940000000     0.141610000000     0.0378995  
C394     C      0.249260000000     0.770940000000     0.178570000000     0.0377385  
C395     C      0.229390000000     0.751670000000     0.197240000000    -0.252268   
C396     C      0.209520000000     0.732410000000     0.178570000000     0.0377849  
C397     C      0.492240000000     0.611930000000     0.256900000000    -0.0121423  
C398     C      0.479410000000     0.595700000000     0.285210000000    -0.0767635  
C399     C      0.966570000000     0.611920000000     0.313540000000    -0.01242    
C400     C      0.966880000000     0.643770000000     0.313740000000     0.00884911 
C401     C      0.979370000000     0.660000000000     0.285220000000    -0.109075   
C402     C      0.491900000000     0.643780000000     0.256710000000     0.00937479 
C403     C      0.966690000000     0.859290000000     0.313450000000     0.00961488 
C404     C      0.479230000000     0.843070000000     0.284950000000    -0.109329   
C405     C      0.491740000000     0.859310000000     0.256440000000     0.00917327 
C406     C      0.492050000000     0.891160000000     0.256630000000    -0.0120343  
C407     C      0.479200000000     0.907370000000     0.284950000000    -0.0759552  
C408     C      0.966350000000     0.891140000000     0.313260000000    -0.0128007  
C409     C      0.370360000000     0.751320000000     0.316980000000     0.00123138 
C410     C      0.386810000000     0.751550000000     0.285070000000    -0.10389    
C411     C      0.370370000000     0.751860000000     0.253190000000     0.00112529 
C412     C      0.338240000000     0.751900000000     0.253210000000     0.00126975 
C413     C      0.321790000000     0.751640000000     0.285120000000    -0.103915   
C414     C      0.338230000000     0.751360000000     0.317000000000     0.00116414 
C415     C      0.088240000000     0.751270000000     0.253190000000     0.00119636 
C416     C      0.071790000000     0.751570000000     0.285100000000    -0.103508   
C417     C      0.088230000000     0.751850000000     0.316980000000     0.00105397 
C418     C      0.120360000000     0.751860000000     0.316960000000     0.00141037 
C419     C      0.136810000000     0.751580000000     0.285050000000    -0.103924   
C420     C      0.120370000000     0.751270000000     0.253170000000     0.00126987 
C421     C      0.491890000000     0.643790000000     0.063460000000     0.00937234 
C422     C      0.979360000000     0.660000000000     0.034950000000    -0.109092   
C423     C      0.966870000000     0.643760000000     0.506430000000     0.00883273 
C424     C      0.966560000000     0.611910000000     0.506630000000    -0.012394   
C425     C      0.979390000000     0.595700000000     0.034960000000    -0.0760155  
C426     C      0.492230000000     0.611930000000     0.063270000000    -0.0120209  
C427     C      0.466690000000     0.859290000000     0.506720000000     0.00962743 
C428     C      0.479240000000     0.843070000000     0.535220000000    -0.109285   
C429     C      0.991750000000     0.859310000000     0.063730000000     0.00760282 
C430     C      0.992050000000     0.891160000000     0.063530000000    -0.0139658  
C431     C      0.479210000000     0.907370000000     0.535210000000    -0.0759238  
C432     C      0.466360000000     0.891140000000     0.506910000000    -0.0122802  
C433     C      0.370360000000     0.751320000000     0.503190000000     0.0012776  
C434     C      0.386810000000     0.751550000000     0.535100000000    -0.103923   
C435     C      0.370370000000     0.751860000000     0.066980000000     0.00119065 
C436     C      0.338240000000     0.751910000000     0.066960000000     0.00127849 
C437     C      0.321790000000     0.751640000000     0.035050000000    -0.103923   
C438     C      0.338230000000     0.751350000000     0.503170000000     0.00113203 
C439     C      0.088240000000     0.751260000000     0.066980000000     0.00127271 
C440     C      0.071790000000     0.751570000000     0.035070000000    -0.103666   
C441     C      0.088230000000     0.751840000000     0.503190000000     0.00110195 
C442     C      0.120360000000     0.751860000000     0.503210000000     0.0013809  
C443     C      0.136810000000     0.751570000000     0.035120000000    -0.103969   
C444     C      0.120370000000     0.751270000000     0.067000000000     0.00128846 
C445     C      0.999120000000     0.732420000000     0.428570000000     0.0359857  
C446     C      0.479240000000     0.751670000000     0.447230000000    -0.252176   
C447     C      0.459360000000     0.770920000000     0.428570000000     0.0377992  
C448     C      0.459360000000     0.770930000000     0.391610000000     0.0377287  
C449     C      0.979240000000     0.751670000000     0.372930000000    -0.251769   
C450     C      0.999130000000     0.732420000000     0.391600000000     0.0359059  
C451     C      0.459490000000     0.770670000000     0.141600000000     0.0378626  
C452     C      0.979370000000     0.751410000000     0.122930000000    -0.251944   
C453     C      0.999230000000     0.732140000000     0.141600000000     0.0361699  
C454     C      0.999230000000     0.732140000000     0.178560000000     0.0358761  
C455     C      0.479360000000     0.751410000000     0.197230000000    -0.252123   
C456     C      0.459490000000     0.770660000000     0.178570000000     0.037782   
C457     C      0.479290000000     0.809410000000     0.035200000000     0.420155   
C458     C      0.979310000000     0.693660000000     0.534970000000     0.419705   
C459     C      0.037740000000     0.751590000000     0.535110000000     0.418281   
C460     C      0.420860000000     0.751500000000     0.035050000000     0.41832    
C461     C      0.479290000000     0.809410000000     0.784970000000     0.420285   
C462     C      0.979320000000     0.693660000000     0.785190000000     0.419716   
C463     C      0.037740000000     0.751590000000     0.785050000000     0.418005   
C464     C      0.420860000000     0.751500000000     0.785110000000     0.418373   
C465     C      0.229280000000     0.809520000000     0.535090000000     0.420694   
C466     C      0.229320000000     0.693770000000     0.535080000000     0.419894   
C467     C      0.287740000000     0.751650000000     0.535090000000     0.418357   
C468     C      0.170860000000     0.751600000000     0.035070000000     0.418338   
C469     C      0.229280000000     0.809520000000     0.785080000000     0.420777   
C470     C      0.229320000000     0.693770000000     0.785080000000     0.419549   
C471     C      0.287740000000     0.751650000000     0.785080000000     0.418357   
C472     C      0.170860000000     0.751600000000     0.785090000000     0.418397   
C473     C      0.479230000000     0.941020000000     0.035180000000     0.345604   
C474     C      0.479370000000     0.562050000000     0.534990000000     0.346414   
C475     C      0.443650000000     0.501650000000     0.591200000000     0.354359   
C476     C      0.514950000000     0.001420000000     0.978970000000     0.354488   
C477     C      0.479220000000     0.941020000000     0.784980000000     0.345682   
C478     C      0.479380000000     0.562050000000     0.785180000000     0.346529   
C479     C      0.514950000000     0.501420000000     0.841200000000     0.354289   
C480     C      0.443650000000     0.001660000000     0.728970000000     0.355126   
C481     C      0.229280000000     0.941120000000     0.035090000000     0.345621   
C482     C      0.229310000000     0.562150000000     0.535070000000     0.346336   
C483     C      0.193650000000     0.501660000000     0.591200000000     0.354378   
C484     C      0.264950000000     0.001620000000     0.978970000000     0.354413   
C485     C      0.229310000000     0.562150000000     0.785090000000     0.346508   
C486     C      0.229290000000     0.941130000000     0.785080000000     0.345847   
C487     C      0.193650000000     0.001650000000     0.728970000000     0.355018   
C488     C      0.264950000000     0.501630000000     0.841200000000     0.354155   
C489     C      0.285690000000     0.529240000000     0.928460000000    -0.00152165 
C490     C      0.282980000000     0.001610000000     0.946700000000    -0.0889283  
C491     C      0.285680000000     0.974000000000     0.928430000000     0.00316498 
C492     C      0.285690000000     0.974010000000     0.891710000000     0.0032662  
C493     C      0.282990000000     0.501630000000     0.873460000000    -0.0840361  
C494     C      0.285700000000     0.529250000000     0.891730000000    -0.00143591 
C495     C      0.172900000000     0.974050000000     0.641710000000     0.00334325 
C496     C      0.175610000000     0.501670000000     0.623460000000    -0.0841037  
C497     C      0.172920000000     0.529280000000     0.641730000000    -0.00133615 
C498     C      0.172920000000     0.529280000000     0.678460000000    -0.00151442 
C499     C      0.175610000000     0.001650000000     0.696710000000    -0.0889665  
C500     C      0.172890000000     0.974040000000     0.678440000000     0.00334912 
C501     C      0.035590000000     0.973740000000     0.928450000000     0.00351709 
C502     C      0.532980000000     0.001360000000     0.946700000000    -0.0889492  
C503     C      0.535790000000     0.528970000000     0.928440000000    -0.00158226 
C504     C      0.535790000000     0.528960000000     0.891710000000    -0.00140189 
C505     C      0.532990000000     0.501350000000     0.873460000000    -0.0841169  
C506     C      0.035600000000     0.973730000000     0.891720000000     0.0037104  
C507     C      0.923010000000     0.529340000000     0.641720000000    -0.001379   
C508     C      0.425620000000     0.501710000000     0.623460000000    -0.0841052  
C509     C      0.422810000000     0.974100000000     0.641730000000     0.00321346 
C510     C      0.422810000000     0.974110000000     0.678450000000     0.00323212 
C511     C      0.425610000000     0.001720000000     0.696710000000    -0.0890628  
C512     C      0.923000000000     0.529340000000     0.678440000000    -0.00134206 
C513     C      0.241780000000     0.643870000000     0.756540000000     0.00846974 
C514     C      0.229320000000     0.660110000000     0.785090000000    -0.108965   
C515     C      0.216860000000     0.643880000000     0.813630000000     0.00847306 
C516     C      0.216540000000     0.612030000000     0.813440000000    -0.011811   
C517     C      0.229320000000     0.595810000000     0.785090000000    -0.0770171  
C518     C      0.242100000000     0.612020000000     0.756730000000    -0.0117934  
C519     C      0.242180000000     0.891250000000     0.756800000000    -0.0124679  
C520     C      0.229280000000     0.907470000000     0.785080000000    -0.075592   
C521     C      0.216380000000     0.891250000000     0.813370000000    -0.0124562  
C522     C      0.216700000000     0.859400000000     0.813560000000     0.0101549  
C523     C      0.229280000000     0.843170000000     0.785080000000    -0.109695   
C524     C      0.241860000000     0.859390000000     0.756610000000     0.010129   
C525     C      0.216870000000     0.643880000000     0.006530000000     0.00904365 
C526     C      0.229330000000     0.660110000000     0.535070000000    -0.109101   
C527     C      0.241780000000     0.643880000000     0.563620000000     0.00856452 
C528     C      0.242100000000     0.612020000000     0.563430000000    -0.0118481  
C529     C      0.229320000000     0.595810000000     0.535070000000    -0.0769384  
C530     C      0.216540000000     0.612020000000     0.006720000000    -0.0111771  
C531     C      0.241850000000     0.859400000000     0.563570000000     0.0101131  
C532     C      0.229270000000     0.843170000000     0.035100000000    -0.109711   
C533     C      0.216690000000     0.859400000000     0.006620000000     0.0106448  
C534     C      0.216380000000     0.891250000000     0.006810000000    -0.0117938  
C535     C      0.229280000000     0.907470000000     0.035100000000    -0.0757402  
C536     C      0.242180000000     0.891250000000     0.563380000000    -0.0124677  
C537     C      0.249090000000     0.732430000000     0.928570000000     0.0375798  
C538     C      0.229210000000     0.751680000000     0.947240000000    -0.252049   
C539     C      0.209330000000     0.770930000000     0.928570000000     0.0376326  
C540     C      0.209330000000     0.770940000000     0.891610000000     0.0377165  
C541     C      0.229210000000     0.751680000000     0.872930000000    -0.252313   
C542     C      0.249100000000     0.732430000000     0.891600000000     0.0376816  
C543     C      0.209520000000     0.732410000000     0.641600000000     0.0377089  
C544     C      0.229390000000     0.751680000000     0.622930000000    -0.252268   
C545     C      0.249260000000     0.770940000000     0.641610000000     0.037843   
C546     C      0.249260000000     0.770940000000     0.678560000000     0.0377518  
C547     C      0.229390000000     0.751670000000     0.697240000000    -0.252259   
C548     C      0.209520000000     0.732410000000     0.678570000000     0.0378022  
C549     C      0.492240000000     0.611930000000     0.756900000000    -0.0121366  
C550     C      0.479400000000     0.595710000000     0.785210000000    -0.0768008  
C551     C      0.966570000000     0.611920000000     0.813540000000    -0.0124163  
C552     C      0.966880000000     0.643770000000     0.813740000000     0.00883825 
C553     C      0.979370000000     0.660000000000     0.785220000000    -0.109069   
C554     C      0.491900000000     0.643780000000     0.756710000000     0.00937343 
C555     C      0.966690000000     0.859290000000     0.813450000000     0.00959525 
C556     C      0.479230000000     0.843070000000     0.784950000000    -0.10934    
C557     C      0.491740000000     0.859310000000     0.756440000000     0.00917231 
C558     C      0.492050000000     0.891160000000     0.756630000000    -0.0120324  
C559     C      0.479200000000     0.907370000000     0.784950000000    -0.0759584  
C560     C      0.966350000000     0.891140000000     0.813260000000    -0.0127985  
C561     C      0.370360000000     0.751320000000     0.816980000000     0.0012415  
C562     C      0.386810000000     0.751550000000     0.785070000000    -0.103902   
C563     C      0.370370000000     0.751860000000     0.753190000000     0.00114322 
C564     C      0.338240000000     0.751900000000     0.753210000000     0.00126959 
C565     C      0.321790000000     0.751640000000     0.785120000000    -0.103902   
C566     C      0.338230000000     0.751350000000     0.817000000000     0.0011322  
C567     C      0.088240000000     0.751260000000     0.753190000000     0.00117956 
C568     C      0.071790000000     0.751570000000     0.785100000000    -0.103485   
C569     C      0.088230000000     0.751850000000     0.816980000000     0.0010456  
C570     C      0.120360000000     0.751860000000     0.816960000000     0.00140888 
C571     C      0.136810000000     0.751580000000     0.785050000000    -0.103928   
C572     C      0.120370000000     0.751270000000     0.753170000000     0.00128123 
C573     C      0.491900000000     0.643790000000     0.563460000000     0.00931256 
C574     C      0.979360000000     0.660000000000     0.534950000000    -0.109062   
C575     C      0.966870000000     0.643770000000     0.006430000000     0.00936226 
C576     C      0.966560000000     0.611910000000     0.006630000000    -0.0117852  
C577     C      0.979400000000     0.595700000000     0.534960000000    -0.0758843  
C578     C      0.492230000000     0.611940000000     0.563270000000    -0.0120606  
C579     C      0.466690000000     0.859290000000     0.006720000000     0.0101972  
C580     C      0.479240000000     0.843070000000     0.035220000000    -0.109358   
C581     C      0.991750000000     0.859310000000     0.563730000000     0.00761934 
C582     C      0.992060000000     0.891160000000     0.563530000000    -0.0140852  
C583     C      0.479210000000     0.907370000000     0.035210000000    -0.0760167  
C584     C      0.466350000000     0.891140000000     0.006910000000    -0.0117269  
C585     C      0.370360000000     0.751320000000     0.003190000000     0.00184781 
C586     C      0.386810000000     0.751560000000     0.035100000000    -0.103982   
C587     C      0.370370000000     0.751860000000     0.566980000000     0.00116226 
C588     C      0.338240000000     0.751910000000     0.566960000000     0.0012598  
C589     C      0.321790000000     0.751640000000     0.535050000000    -0.103897   
C590     C      0.338230000000     0.751350000000     0.003160000000     0.00162022 
C591     C      0.088240000000     0.751270000000     0.566980000000     0.00124585 
C592     C      0.071790000000     0.751570000000     0.535070000000    -0.1036     
C593     C      0.088230000000     0.751840000000     0.003190000000     0.00166253 
C594     C      0.120360000000     0.751860000000     0.003210000000     0.00194312 
C595     C      0.136810000000     0.751580000000     0.535120000000    -0.103902   
C596     C      0.120370000000     0.751270000000     0.567000000000     0.00125438 
C597     C      0.999130000000     0.732420000000     0.928570000000     0.0356959  
C598     C      0.479230000000     0.751670000000     0.947240000000    -0.251901   
C599     C      0.459360000000     0.770920000000     0.928570000000     0.0376122  
C600     C      0.459360000000     0.770920000000     0.891610000000     0.0378498  
C601     C      0.979240000000     0.751670000000     0.872930000000    -0.251839   
C602     C      0.999130000000     0.732420000000     0.891600000000     0.0360158  
C603     C      0.459480000000     0.770670000000     0.641600000000     0.0376572  
C604     C      0.979360000000     0.751410000000     0.622930000000    -0.251785   
C605     C      0.999230000000     0.732140000000     0.641600000000     0.0360069  
C606     C      0.999230000000     0.732140000000     0.678560000000     0.0360087  
C607     C      0.479360000000     0.751410000000     0.697240000000    -0.252298   
C608     C      0.459480000000     0.770660000000     0.678570000000     0.0378672  
C609     C      0.979290000000     0.309410000000     0.535200000000     0.419654   
C610     C      0.479310000000     0.193660000000     0.034970000000     0.420129   
C611     C      0.537740000000     0.251590000000     0.035110000000     0.418579   
C612     C      0.920860000000     0.251500000000     0.535050000000     0.41819    
C613     C      0.979280000000     0.309410000000     0.284970000000     0.419696   
C614     C      0.479320000000     0.193660000000     0.285190000000     0.420222   
C615     C      0.537740000000     0.251590000000     0.285060000000     0.418363   
C616     C      0.920860000000     0.251500000000     0.285110000000     0.418158   
C617     C      0.729280000000     0.309520000000     0.035090000000     0.420571   
C618     C      0.729320000000     0.193770000000     0.035080000000     0.419784   
C619     C      0.787740000000     0.251650000000     0.035090000000     0.418304   
C620     C      0.670860000000     0.251600000000     0.535070000000     0.418371   
C621     C      0.729280000000     0.309520000000     0.285080000000     0.420694   
C622     C      0.729320000000     0.193770000000     0.285080000000     0.419839   
C623     C      0.787740000000     0.251650000000     0.285070000000     0.418378   
C624     C      0.670860000000     0.251600000000     0.285090000000     0.418371   
C625     C      0.979230000000     0.441020000000     0.535180000000     0.343811   
C626     C      0.979370000000     0.062050000000     0.034990000000     0.343931   
C627     C      0.943650000000     0.001650000000     0.091200000000     0.355111   
C628     C      0.014950000000     0.501420000000     0.478970000000     0.356641   
C629     C      0.979220000000     0.441020000000     0.284980000000     0.344009   
C630     C      0.979380000000     0.062050000000     0.285180000000     0.343584   
C631     C      0.014950000000     0.001420000000     0.341190000000     0.357319   
C632     C      0.943650000000     0.501660000000     0.228970000000     0.354598   
C633     C      0.729280000000     0.441120000000     0.535090000000     0.346256   
C634     C      0.729310000000     0.062150000000     0.035080000000     0.346373   
C635     C      0.693650000000     0.001660000000     0.091200000000     0.354947   
C636     C      0.764950000000     0.501620000000     0.478970000000     0.354349   
C637     C      0.729310000000     0.062150000000     0.285080000000     0.346324   
C638     C      0.729290000000     0.441120000000     0.285080000000     0.346402   
C639     C      0.693650000000     0.501650000000     0.228970000000     0.354316   
C640     C      0.764950000000     0.001640000000     0.341200000000     0.354972   
C641     C      0.785690000000     0.029240000000     0.428460000000    -0.000742476
C642     C      0.782980000000     0.501610000000     0.446700000000    -0.0840564  
C643     C      0.785690000000     0.474000000000     0.428430000000    -0.00136933 
C644     C      0.785690000000     0.474010000000     0.391710000000    -0.00141149 
C645     C      0.782990000000     0.001630000000     0.373460000000    -0.0889811  
C646     C      0.785700000000     0.029250000000     0.391730000000    -0.000755945
C647     C      0.672900000000     0.474050000000     0.141710000000    -0.00136235 
C648     C      0.675610000000     0.001670000000     0.123460000000    -0.0889155  
C649     C      0.672920000000     0.029290000000     0.141730000000    -0.000846516
C650     C      0.672920000000     0.029280000000     0.178460000000    -0.000744592
C651     C      0.675610000000     0.501650000000     0.196710000000    -0.0840918  
C652     C      0.672890000000     0.474040000000     0.178440000000    -0.00130279 
C653     C      0.535590000000     0.473740000000     0.428450000000    -0.00138624 
C654     C      0.032990000000     0.501370000000     0.446700000000    -0.0844704  
C655     C      0.035790000000     0.028970000000     0.428440000000    -0.000503136
C656     C      0.035790000000     0.028960000000     0.391710000000    -0.000365814
C657     C      0.032990000000     0.001350000000     0.373460000000    -0.0894223  
C658     C      0.535600000000     0.473730000000     0.391720000000    -0.00134755 
C659     C      0.423010000000     0.029340000000     0.141720000000    -0.000733268
C660     C      0.925620000000     0.001710000000     0.123460000000    -0.0891169  
C661     C      0.922820000000     0.474100000000     0.141730000000    -0.00153642 
C662     C      0.922810000000     0.474110000000     0.178450000000    -0.00141197 
C663     C      0.925620000000     0.501720000000     0.196710000000    -0.0843296  
C664     C      0.423000000000     0.029340000000     0.178440000000    -0.000586541
C665     C      0.741780000000     0.143870000000     0.256540000000     0.00854439 
C666     C      0.729320000000     0.160110000000     0.285090000000    -0.109081   
C667     C      0.716870000000     0.143880000000     0.313630000000     0.00855328 
C668     C      0.716540000000     0.112030000000     0.313440000000    -0.0118585  
C669     C      0.729320000000     0.095810000000     0.285090000000    -0.0769402  
C670     C      0.742100000000     0.112020000000     0.256730000000    -0.0118468  
C671     C      0.742180000000     0.391250000000     0.256800000000    -0.0122336  
C672     C      0.729280000000     0.407470000000     0.285080000000    -0.0765847  
C673     C      0.716380000000     0.391250000000     0.313360000000    -0.0121451  
C674     C      0.716700000000     0.359400000000     0.313560000000     0.00978238 
C675     C      0.729280000000     0.343170000000     0.285080000000    -0.109579   
C676     C      0.741860000000     0.359400000000     0.256610000000     0.009794   
C677     C      0.716870000000     0.143880000000     0.506530000000     0.00854851 
C678     C      0.729320000000     0.160110000000     0.035070000000    -0.109129   
C679     C      0.741780000000     0.143880000000     0.063620000000     0.00855538 
C680     C      0.742100000000     0.112020000000     0.063430000000    -0.0117712  
C681     C      0.729320000000     0.095810000000     0.035070000000    -0.0770514  
C682     C      0.716540000000     0.112020000000     0.506720000000    -0.0118907  
C683     C      0.741850000000     0.359400000000     0.063570000000     0.00984606 
C684     C      0.729270000000     0.343170000000     0.535100000000    -0.109608   
C685     C      0.716690000000     0.359400000000     0.506620000000     0.00983326 
C686     C      0.716370000000     0.391250000000     0.506810000000    -0.0122737  
C687     C      0.729280000000     0.407470000000     0.535100000000    -0.0764691  
C688     C      0.742180000000     0.391250000000     0.063380000000    -0.0122227  
C689     C      0.749100000000     0.232430000000     0.428570000000     0.0376903  
C690     C      0.729210000000     0.251680000000     0.447230000000    -0.252233   
C691     C      0.709330000000     0.270930000000     0.428560000000     0.037777   
C692     C      0.709320000000     0.270930000000     0.391610000000     0.0376712  
C693     C      0.729210000000     0.251680000000     0.372930000000    -0.252285   
C694     C      0.749100000000     0.232430000000     0.391600000000     0.0376967  
C695     C      0.709520000000     0.232410000000     0.141600000000     0.0377835  
C696     C      0.729390000000     0.251680000000     0.122930000000    -0.252398   
C697     C      0.749260000000     0.270940000000     0.141610000000     0.037865   
C698     C      0.749260000000     0.270940000000     0.178570000000     0.0378116  
C699     C      0.729390000000     0.251680000000     0.197240000000    -0.252276   
C700     C      0.709520000000     0.232410000000     0.178570000000     0.0377249  
C701     C      0.992240000000     0.111930000000     0.256900000000    -0.0142713  
C702     C      0.979410000000     0.095710000000     0.285210000000    -0.0756344  
C703     C      0.466570000000     0.111920000000     0.313540000000    -0.0119697  
C704     C      0.466880000000     0.143770000000     0.313740000000     0.00894874 
C705     C      0.479370000000     0.160000000000     0.285220000000    -0.109306   
C706     C      0.991900000000     0.143780000000     0.256710000000     0.00791886 
C707     C      0.466690000000     0.359290000000     0.313450000000     0.00937421 
C708     C      0.979230000000     0.343070000000     0.284950000000    -0.108986   
C709     C      0.991740000000     0.359300000000     0.256440000000     0.00736031 
C710     C      0.992050000000     0.391160000000     0.256630000000    -0.013903   
C711     C      0.979200000000     0.407370000000     0.284950000000    -0.0758849  
C712     C      0.466350000000     0.391150000000     0.313260000000    -0.0121238  
C713     C      0.870360000000     0.251320000000     0.316980000000     0.00118699 
C714     C      0.886810000000     0.251550000000     0.285070000000    -0.103806   
C715     C      0.870370000000     0.251860000000     0.253190000000     0.00107605 
C716     C      0.838240000000     0.251900000000     0.253210000000     0.00128703 
C717     C      0.821790000000     0.251640000000     0.285120000000    -0.103932   
C718     C      0.838230000000     0.251360000000     0.317000000000     0.00118285 
C719     C      0.588240000000     0.251260000000     0.253190000000     0.00124838 
C720     C      0.571790000000     0.251570000000     0.285100000000    -0.103893   
C721     C      0.588230000000     0.251850000000     0.316980000000     0.00109529 
C722     C      0.620360000000     0.251860000000     0.316960000000     0.00127699 
C723     C      0.636810000000     0.251580000000     0.285050000000    -0.103916   
C724     C      0.620370000000     0.251270000000     0.253170000000     0.00115127 
C725     C      0.991890000000     0.143790000000     0.063460000000     0.00788926 
C726     C      0.479360000000     0.160000000000     0.034950000000    -0.109302   
C727     C      0.466870000000     0.143770000000     0.506430000000     0.00890171 
C728     C      0.466560000000     0.111910000000     0.506630000000    -0.0118932  
C729     C      0.479400000000     0.095700000000     0.034960000000    -0.0768937  
C730     C      0.992230000000     0.111930000000     0.063270000000    -0.0141002  
C731     C      0.966690000000     0.359290000000     0.506720000000     0.00928478 
C732     C      0.979240000000     0.343070000000     0.535220000000    -0.108945   
C733     C      0.491750000000     0.359310000000     0.063730000000     0.00884149 
C734     C      0.492050000000     0.391160000000     0.063530000000    -0.0117619  
C735     C      0.979210000000     0.407370000000     0.535210000000    -0.0758405  
C736     C      0.966360000000     0.391140000000     0.506910000000    -0.01262    
C737     C      0.870360000000     0.251320000000     0.503190000000     0.00123219 
C738     C      0.886810000000     0.251560000000     0.535100000000    -0.10384    
C739     C      0.870370000000     0.251860000000     0.066980000000     0.00114311 
C740     C      0.838240000000     0.251910000000     0.066960000000     0.00129479 
C741     C      0.821790000000     0.251640000000     0.035050000000    -0.103939   
C742     C      0.838230000000     0.251360000000     0.503170000000     0.00115382 
C743     C      0.588240000000     0.251270000000     0.066980000000     0.00134343 
C744     C      0.571790000000     0.251570000000     0.035070000000    -0.104071   
C745     C      0.588230000000     0.251850000000     0.503190000000     0.00115518 
C746     C      0.620360000000     0.251860000000     0.503210000000     0.00123957 
C747     C      0.636810000000     0.251570000000     0.035120000000    -0.103947   
C748     C      0.620370000000     0.251270000000     0.067000000000     0.00114918 
C749     C      0.499130000000     0.232420000000     0.428570000000     0.0376385  
C750     C      0.979230000000     0.251670000000     0.447230000000    -0.251633   
C751     C      0.959360000000     0.270920000000     0.428570000000     0.0376522  
C752     C      0.959360000000     0.270930000000     0.391610000000     0.0374921  
C753     C      0.479240000000     0.251670000000     0.372930000000    -0.25235    
C754     C      0.499130000000     0.232420000000     0.391600000000     0.0377432  
C755     C      0.959490000000     0.270670000000     0.141600000000     0.037704   
C756     C      0.479370000000     0.251410000000     0.122930000000    -0.252487   
C757     C      0.499230000000     0.232140000000     0.141600000000     0.0379706  
C758     C      0.499230000000     0.232140000000     0.178560000000     0.037709   
C759     C      0.979360000000     0.251400000000     0.197230000000    -0.251555   
C760     C      0.959490000000     0.270670000000     0.178570000000     0.037356   
C761     C      0.979290000000     0.309410000000     0.035200000000     0.419595   
C762     C      0.479310000000     0.193660000000     0.534970000000     0.420197   
C763     C      0.537740000000     0.251590000000     0.535110000000     0.418641   
C764     C      0.920860000000     0.251510000000     0.035050000000     0.418124   
C765     C      0.979290000000     0.309410000000     0.784970000000     0.419733   
C766     C      0.479320000000     0.193660000000     0.785190000000     0.420209   
C767     C      0.537740000000     0.251590000000     0.785050000000     0.418365   
C768     C      0.920860000000     0.251500000000     0.785110000000     0.418115   
C769     C      0.729280000000     0.309520000000     0.535090000000     0.420641   
C770     C      0.729320000000     0.193770000000     0.535080000000     0.419854   
C771     C      0.787740000000     0.251650000000     0.535090000000     0.418379   
C772     C      0.670860000000     0.251600000000     0.035070000000     0.418306   
C773     C      0.729280000000     0.309520000000     0.785080000000     0.420649   
C774     C      0.729320000000     0.193770000000     0.785080000000     0.419589   
C775     C      0.787740000000     0.251650000000     0.785080000000     0.418383   
C776     C      0.670860000000     0.251600000000     0.785090000000     0.41838    
C777     C      0.979230000000     0.441020000000     0.035180000000     0.343926   
C778     C      0.979370000000     0.062050000000     0.534990000000     0.343804   
C779     C      0.943650000000     0.001650000000     0.591200000000     0.355275   
C780     C      0.014950000000     0.501420000000     0.978970000000     0.355637   
C781     C      0.979220000000     0.441020000000     0.784980000000     0.34401    
C782     C      0.979380000000     0.062050000000     0.785180000000     0.344006   
C783     C      0.014950000000     0.001420000000     0.841200000000     0.357253   
C784     C      0.943650000000     0.501660000000     0.728970000000     0.354547   
C785     C      0.729280000000     0.441120000000     0.035090000000     0.346394   
C786     C      0.729310000000     0.062150000000     0.535070000000     0.346123   
C787     C      0.693650000000     0.001660000000     0.591200000000     0.355378   
C788     C      0.764950000000     0.501620000000     0.978970000000     0.353626   
C789     C      0.729310000000     0.062150000000     0.785090000000     0.346283   
C790     C      0.729290000000     0.441120000000     0.785080000000     0.346245   
C791     C      0.693650000000     0.501650000000     0.728970000000     0.354448   
C792     C      0.764950000000     0.001640000000     0.841200000000     0.354915   
C793     C      0.785690000000     0.029240000000     0.928460000000    -0.000862622
C794     C      0.782980000000     0.501610000000     0.946700000000    -0.0839462  
C795     C      0.785680000000     0.474000000000     0.928430000000    -0.00149024 
C796     C      0.785690000000     0.474010000000     0.891710000000    -0.00140908 
C797     C      0.782990000000     0.001630000000     0.873460000000    -0.0889931  
C798     C      0.785700000000     0.029250000000     0.891730000000    -0.000746679
C799     C      0.672900000000     0.474050000000     0.641710000000    -0.00137217 
C800     C      0.675610000000     0.001670000000     0.623460000000    -0.0891346  
C801     C      0.672920000000     0.029290000000     0.641730000000    -0.000731772
C802     C      0.672920000000     0.029280000000     0.678460000000    -0.000833323
C803     C      0.675610000000     0.501650000000     0.696710000000    -0.0841022  
C804     C      0.672890000000     0.474040000000     0.678440000000    -0.00129086 
C805     C      0.535590000000     0.473730000000     0.928450000000    -0.0015777  
C806     C      0.032990000000     0.501370000000     0.946700000000    -0.0841993  
C807     C      0.035790000000     0.028970000000     0.928440000000    -0.000633188
C808     C      0.035790000000     0.028960000000     0.891710000000    -0.000331507
C809     C      0.032990000000     0.001350000000     0.873460000000    -0.0895136  
C810     C      0.535600000000     0.473730000000     0.891720000000    -0.00127058 
C811     C      0.423010000000     0.029340000000     0.641720000000    -0.000677983
C812     C      0.925620000000     0.001710000000     0.623460000000    -0.0891806  
C813     C      0.922810000000     0.474100000000     0.641730000000    -0.00148215 
C814     C      0.922810000000     0.474110000000     0.678450000000    -0.00146856 
C815     C      0.925610000000     0.501720000000     0.696710000000    -0.0842411  
C816     C      0.423000000000     0.029340000000     0.678440000000    -0.000641949
C817     C      0.741780000000     0.143870000000     0.756540000000     0.00850958 
C818     C      0.729320000000     0.160110000000     0.785090000000    -0.108989   
C819     C      0.716870000000     0.143880000000     0.813630000000     0.00853115 
C820     C      0.716540000000     0.112030000000     0.813440000000    -0.0118562  
C821     C      0.729310000000     0.095810000000     0.785090000000    -0.0769323  
C822     C      0.742100000000     0.112020000000     0.756730000000    -0.0118401  
C823     C      0.742180000000     0.391250000000     0.756800000000    -0.0123043  
C824     C      0.729280000000     0.407470000000     0.785080000000    -0.0764694  
C825     C      0.716380000000     0.391250000000     0.813370000000    -0.0122969  
C826     C      0.716700000000     0.359400000000     0.813560000000     0.00984863 
C827     C      0.729280000000     0.343170000000     0.785080000000    -0.109617   
C828     C      0.741860000000     0.359400000000     0.756610000000     0.00983846 
C829     C      0.716870000000     0.143880000000     0.006530000000     0.00909908 
C830     C      0.729330000000     0.160110000000     0.535070000000    -0.10909    
C831     C      0.741780000000     0.143880000000     0.563620000000     0.0085834  
C832     C      0.742100000000     0.112020000000     0.563430000000    -0.0118692  
C833     C      0.729320000000     0.095810000000     0.535070000000    -0.0768653  
C834     C      0.716540000000     0.112020000000     0.006720000000    -0.0112656  
C835     C      0.741850000000     0.359400000000     0.563570000000     0.00983817 
C836     C      0.729270000000     0.343170000000     0.035100000000    -0.109646   
C837     C      0.716690000000     0.359400000000     0.006620000000     0.0103467  
C838     C      0.716380000000     0.391250000000     0.006810000000    -0.0116293  
C839     C      0.729280000000     0.407470000000     0.035100000000    -0.0766259  
C840     C      0.742180000000     0.391250000000     0.563380000000    -0.0123004  
C841     C      0.749090000000     0.232430000000     0.928570000000     0.0375285  
C842     C      0.729210000000     0.251680000000     0.947240000000    -0.251962   
C843     C      0.709330000000     0.270940000000     0.928570000000     0.0374566  
C844     C      0.709330000000     0.270930000000     0.891610000000     0.0378963  
C845     C      0.729210000000     0.251680000000     0.872930000000    -0.252456   
C846     C      0.749100000000     0.232430000000     0.891600000000     0.0377692  
C847     C      0.709520000000     0.232410000000     0.641600000000     0.0377163  
C848     C      0.729390000000     0.251680000000     0.622930000000    -0.252269   
C849     C      0.749260000000     0.270940000000     0.641610000000     0.0378454  
C850     C      0.749260000000     0.270940000000     0.678560000000     0.0377347  
C851     C      0.729390000000     0.251670000000     0.697240000000    -0.252252   
C852     C      0.709520000000     0.232410000000     0.678570000000     0.037803   
C853     C      0.992240000000     0.111930000000     0.756900000000    -0.0141579  
C854     C      0.979400000000     0.095700000000     0.785210000000    -0.0759037  
C855     C      0.466570000000     0.111920000000     0.813540000000    -0.011889   
C856     C      0.466880000000     0.143770000000     0.813740000000     0.00889699 
C857     C      0.479370000000     0.160000000000     0.785220000000    -0.109274   
C858     C      0.991900000000     0.143780000000     0.756710000000     0.00786127 
C859     C      0.466680000000     0.359290000000     0.813450000000     0.00931441 
C860     C      0.979230000000     0.343070000000     0.784950000000    -0.109      
C861     C      0.991740000000     0.359300000000     0.756440000000     0.00735986 
C862     C      0.992050000000     0.391160000000     0.756630000000    -0.0139001  
C863     C      0.979200000000     0.407370000000     0.784950000000    -0.0758911  
C864     C      0.466350000000     0.391140000000     0.813260000000    -0.0120944  
C865     C      0.870360000000     0.251320000000     0.816980000000     0.00118519 
C866     C      0.886810000000     0.251550000000     0.785070000000    -0.103809   
C867     C      0.870370000000     0.251860000000     0.753190000000     0.00108887 
C868     C      0.838240000000     0.251900000000     0.753210000000     0.00129092 
C869     C      0.821790000000     0.251640000000     0.785120000000    -0.103926   
C870     C      0.838230000000     0.251360000000     0.817000000000     0.00115834 
C871     C      0.588240000000     0.251270000000     0.753190000000     0.00124873 
C872     C      0.571790000000     0.251570000000     0.785100000000    -0.103894   
C873     C      0.588230000000     0.251850000000     0.816980000000     0.00110036 
C874     C      0.620360000000     0.251860000000     0.816960000000     0.00126725 
C875     C      0.636810000000     0.251580000000     0.785050000000    -0.103911   
C876     C      0.620370000000     0.251270000000     0.753170000000     0.00114363 
C877     C      0.991900000000     0.143790000000     0.563460000000     0.00782429 
C878     C      0.479360000000     0.160000000000     0.534950000000    -0.109274   
C879     C      0.466870000000     0.143770000000     0.006430000000     0.00944046 
C880     C      0.466560000000     0.111910000000     0.006630000000    -0.0113017  
C881     C      0.479400000000     0.095700000000     0.534960000000    -0.0767603  
C882     C      0.992230000000     0.111930000000     0.563270000000    -0.0141423  
C883     C      0.966690000000     0.359290000000     0.006720000000     0.00985193 
C884     C      0.979240000000     0.343070000000     0.035220000000    -0.109019   
C885     C      0.491750000000     0.359310000000     0.563730000000     0.00880745 
C886     C      0.492050000000     0.391160000000     0.563530000000    -0.0117928  
C887     C      0.979210000000     0.407370000000     0.035210000000    -0.0759354  
C888     C      0.966350000000     0.391140000000     0.006910000000    -0.0120667  
C889     C      0.870360000000     0.251320000000     0.003190000000     0.00180216 
C890     C      0.886810000000     0.251560000000     0.035100000000    -0.103899   
C891     C      0.870370000000     0.251860000000     0.566980000000     0.00111375 
C892     C      0.838240000000     0.251910000000     0.566960000000     0.00127788 
C893     C      0.821790000000     0.251640000000     0.535050000000    -0.103916   
C894     C      0.838230000000     0.251360000000     0.003160000000     0.00163854 
C895     C      0.588240000000     0.251260000000     0.566980000000     0.00130743 
C896     C      0.571790000000     0.251570000000     0.535070000000    -0.104003   
C897     C      0.588230000000     0.251850000000     0.003190000000     0.00171813 
C898     C      0.620360000000     0.251860000000     0.003210000000     0.00179984 
C899     C      0.636810000000     0.251570000000     0.535120000000    -0.103886   
C900     C      0.620370000000     0.251270000000     0.567000000000     0.0011215  
C901     C      0.499120000000     0.232420000000     0.928570000000     0.0375     
C902     C      0.979230000000     0.251670000000     0.947240000000    -0.251374   
C903     C      0.959360000000     0.270920000000     0.928570000000     0.0374435  
C904     C      0.959360000000     0.270930000000     0.891610000000     0.0375642  
C905     C      0.479240000000     0.251670000000     0.872930000000    -0.252376   
C906     C      0.499120000000     0.232420000000     0.891600000000     0.0378066  
C907     C      0.959480000000     0.270670000000     0.641600000000     0.03741    
C908     C      0.479360000000     0.251410000000     0.622930000000    -0.252297   
C909     C      0.499230000000     0.232140000000     0.641600000000     0.0378059  
C910     C      0.499230000000     0.232140000000     0.678560000000     0.0378064  
C911     C      0.979360000000     0.251410000000     0.697240000000    -0.25179    
C912     C      0.959480000000     0.270660000000     0.678570000000     0.0376171  
C913     C      0.979290000000     0.809410000000     0.535200000000     0.419724   
C914     C      0.479310000000     0.693660000000     0.034970000000     0.420116   
C915     C      0.537740000000     0.751590000000     0.035110000000     0.418578   
C916     C      0.920860000000     0.751500000000     0.535050000000     0.418188   
C917     C      0.979290000000     0.809410000000     0.284970000000     0.419788   
C918     C      0.479320000000     0.693660000000     0.285190000000     0.420188   
C919     C      0.537740000000     0.751590000000     0.285060000000     0.418252   
C920     C      0.920860000000     0.751500000000     0.285110000000     0.418053   
C921     C      0.729280000000     0.809520000000     0.035090000000     0.420638   
C922     C      0.729320000000     0.693770000000     0.035080000000     0.419764   
C923     C      0.787740000000     0.751650000000     0.035090000000     0.418306   
C924     C      0.670860000000     0.751600000000     0.535070000000     0.418361   
C925     C      0.729280000000     0.809520000000     0.285080000000     0.420762   
C926     C      0.729320000000     0.693770000000     0.285080000000     0.419814   
C927     C      0.787740000000     0.751650000000     0.285070000000     0.418378   
C928     C      0.670860000000     0.751600000000     0.285090000000     0.418378   
C929     C      0.979230000000     0.941020000000     0.535180000000     0.343074   
C930     C      0.979370000000     0.562050000000     0.034990000000     0.344139   
C931     C      0.943650000000     0.501650000000     0.091200000000     0.354359   
C932     C      0.014950000000     0.001420000000     0.478970000000     0.357106   
C933     C      0.979220000000     0.941020000000     0.284980000000     0.343274   
C934     C      0.979380000000     0.562050000000     0.285180000000     0.343808   
C935     C      0.014960000000     0.501420000000     0.341190000000     0.356503   
C936     C      0.943650000000     0.001660000000     0.228970000000     0.355292   
C937     C      0.729280000000     0.941120000000     0.535090000000     0.3455     
C938     C      0.729310000000     0.562150000000     0.035080000000     0.346662   
C939     C      0.693650000000     0.501660000000     0.091200000000     0.354369   
C940     C      0.764950000000     0.001620000000     0.478970000000     0.355143   
C941     C      0.729310000000     0.562150000000     0.285080000000     0.346602   
C942     C      0.729290000000     0.941120000000     0.285080000000     0.34572    
C943     C      0.693650000000     0.001650000000     0.228970000000     0.355233   
C944     C      0.764950000000     0.501640000000     0.341200000000     0.35415    
C945     C      0.785690000000     0.529240000000     0.428460000000    -0.00140877 
C946     C      0.782980000000     0.001610000000     0.446700000000    -0.0890253  
C947     C      0.785680000000     0.974000000000     0.428430000000     0.00328124 
C948     C      0.785690000000     0.974010000000     0.391710000000     0.00325171 
C949     C      0.782990000000     0.501630000000     0.373460000000    -0.0839984  
C950     C      0.785700000000     0.529250000000     0.391730000000    -0.00142673 
C951     C      0.672900000000     0.974050000000     0.141710000000     0.00325672 
C952     C      0.675610000000     0.501670000000     0.123460000000    -0.0840329  
C953     C      0.672920000000     0.529290000000     0.141730000000    -0.0015045  
C954     C      0.672920000000     0.529270000000     0.178460000000    -0.00136591 
C955     C      0.675610000000     0.001650000000     0.196710000000    -0.0891074  
C956     C      0.672890000000     0.974040000000     0.178440000000     0.00339588 
C957     C      0.535590000000     0.973730000000     0.428450000000     0.00329023 
C958     C      0.032990000000     0.001360000000     0.446700000000    -0.0892846  
C959     C      0.035790000000     0.528970000000     0.428440000000    -0.00106637 
C960     C      0.035790000000     0.528960000000     0.391710000000    -0.00106422 
C961     C      0.032990000000     0.501350000000     0.373460000000    -0.0844658  
C962     C      0.535600000000     0.973730000000     0.391720000000     0.00333408 
C963     C      0.423010000000     0.529340000000     0.141720000000    -0.00137534 
C964     C      0.925620000000     0.501710000000     0.123460000000    -0.0841614  
C965     C      0.922820000000     0.974100000000     0.141730000000     0.00312081 
C966     C      0.922810000000     0.974110000000     0.178450000000     0.00319396 
C967     C      0.925610000000     0.001720000000     0.196710000000    -0.0892006  
C968     C      0.423000000000     0.529340000000     0.178440000000    -0.00128926 
C969     C      0.741780000000     0.643870000000     0.256540000000     0.00849747 
C970     C      0.729320000000     0.660110000000     0.285090000000    -0.109066   
C971     C      0.716870000000     0.643880000000     0.313630000000     0.00850283 
C972     C      0.716540000000     0.612030000000     0.313440000000    -0.011766   
C973     C      0.729320000000     0.595800000000     0.285090000000    -0.0771296  
C974     C      0.742100000000     0.612020000000     0.256730000000    -0.0117669  
C975     C      0.742180000000     0.891250000000     0.256800000000    -0.0123942  
C976     C      0.729280000000     0.907470000000     0.285080000000    -0.0757227  
C977     C      0.716380000000     0.891250000000     0.313360000000    -0.0123102  
C978     C      0.716700000000     0.859400000000     0.313560000000     0.0100722  
C979     C      0.729280000000     0.843170000000     0.285080000000    -0.109652   
C980     C      0.741860000000     0.859400000000     0.256610000000     0.0100818  
C981     C      0.716870000000     0.643880000000     0.506530000000     0.00853859 
C982     C      0.729330000000     0.660110000000     0.035070000000    -0.109133   
C983     C      0.741780000000     0.643880000000     0.063620000000     0.0085608  
C984     C      0.742100000000     0.612020000000     0.063430000000    -0.0117148  
C985     C      0.729320000000     0.595800000000     0.035070000000    -0.0772327  
C986     C      0.716540000000     0.612020000000     0.506720000000    -0.0118703  
C987     C      0.741850000000     0.859400000000     0.063570000000     0.0101298  
C988     C      0.729270000000     0.843170000000     0.535100000000    -0.109659   
C989     C      0.716690000000     0.859400000000     0.506620000000     0.0100967  
C990     C      0.716380000000     0.891250000000     0.506810000000    -0.012402   
C991     C      0.729280000000     0.907470000000     0.535100000000    -0.0756131  
C992     C      0.742180000000     0.891250000000     0.063380000000    -0.0123982  
C993     C      0.749090000000     0.732430000000     0.428570000000     0.0376946  
C994     C      0.729210000000     0.751680000000     0.447230000000    -0.252209   
C995     C      0.709330000000     0.770930000000     0.428560000000     0.0377638  
C996     C      0.709330000000     0.770940000000     0.391610000000     0.0376986  
C997     C      0.729210000000     0.751680000000     0.372930000000    -0.252326   
C998     C      0.749090000000     0.732430000000     0.391600000000     0.0377421  
C999     C      0.709520000000     0.732410000000     0.141600000000     0.0377532  
C1000    C      0.729390000000     0.751680000000     0.122930000000    -0.252398   
C1001    C      0.749260000000     0.770940000000     0.141610000000     0.0379034  
C1002    C      0.749260000000     0.770940000000     0.178570000000     0.037741   
C1003    C      0.729390000000     0.751670000000     0.197240000000    -0.252268   
C1004    C      0.709520000000     0.732410000000     0.178570000000     0.0377825  
C1005    C      0.992240000000     0.611930000000     0.256900000000    -0.0142239  
C1006    C      0.979400000000     0.595700000000     0.285210000000    -0.0758111  
C1007    C      0.466570000000     0.611920000000     0.313540000000    -0.0119121  
C1008    C      0.466880000000     0.643770000000     0.313740000000     0.00890801 
C1009    C      0.479370000000     0.660000000000     0.285220000000    -0.109293   
C1010    C      0.991900000000     0.643780000000     0.256710000000     0.00787246 
C1011    C      0.466690000000     0.859290000000     0.313450000000     0.00965778 
C1012    C      0.979230000000     0.843070000000     0.284950000000    -0.109071   
C1013    C      0.991740000000     0.859310000000     0.256440000000     0.00764898 
C1014    C      0.992050000000     0.891160000000     0.256630000000    -0.0140888  
C1015    C      0.979200000000     0.907370000000     0.284950000000    -0.0750022  
C1016    C      0.466350000000     0.891140000000     0.313260000000    -0.0122888  
C1017    C      0.870360000000     0.751320000000     0.316980000000     0.00118492 
C1018    C      0.886810000000     0.751550000000     0.285070000000    -0.103773   
C1019    C      0.870370000000     0.751860000000     0.253190000000     0.0010822  
C1020    C      0.838240000000     0.751900000000     0.253210000000     0.00129938 
C1021    C      0.821790000000     0.751640000000     0.285120000000    -0.103918   
C1022    C      0.838230000000     0.751360000000     0.317000000000     0.00118978 
C1023    C      0.588240000000     0.751270000000     0.253190000000     0.00120524 
C1024    C      0.571800000000     0.751570000000     0.285100000000    -0.103737   
C1025    C      0.588230000000     0.751850000000     0.316980000000     0.00104675 
C1026    C      0.620360000000     0.751860000000     0.316960000000     0.00132045 
C1027    C      0.636810000000     0.751580000000     0.285050000000    -0.103922   
C1028    C      0.620370000000     0.751270000000     0.253170000000     0.00118447 
C1029    C      0.991900000000     0.643790000000     0.063460000000     0.00782408 
C1030    C      0.479360000000     0.660000000000     0.034950000000    -0.109332   
C1031    C      0.466870000000     0.643760000000     0.506430000000     0.00888527 
C1032    C      0.466560000000     0.611910000000     0.506630000000    -0.0118834  
C1033    C      0.479400000000     0.595700000000     0.034960000000    -0.0769668  
C1034    C      0.992230000000     0.611930000000     0.063270000000    -0.0140796  
C1035    C      0.966690000000     0.859290000000     0.506720000000     0.00960304 
C1036    C      0.979240000000     0.843070000000     0.535220000000    -0.109038   
C1037    C      0.491750000000     0.859310000000     0.063730000000     0.00916284 
C1038    C      0.492060000000     0.891160000000     0.063530000000    -0.0119672  
C1039    C      0.979210000000     0.907370000000     0.535210000000    -0.0749337  
C1040    C      0.966350000000     0.891140000000     0.506910000000    -0.0128369  
C1041    C      0.870360000000     0.751320000000     0.503190000000     0.00124196 
C1042    C      0.886810000000     0.751550000000     0.535100000000    -0.103824   
C1043    C      0.870370000000     0.751860000000     0.066980000000     0.00114958 
C1044    C      0.838240000000     0.751910000000     0.066960000000     0.00131063 
C1045    C      0.821790000000     0.751640000000     0.035050000000    -0.103939   
C1046    C      0.838230000000     0.751350000000     0.503170000000     0.00116374 
C1047    C      0.588240000000     0.751260000000     0.066980000000     0.00135064 
C1048    C      0.571790000000     0.751570000000     0.035070000000    -0.104058   
C1049    C      0.588230000000     0.751840000000     0.503190000000     0.00116748 
C1050    C      0.620360000000     0.751860000000     0.503210000000     0.00125086 
C1051    C      0.636810000000     0.751570000000     0.035120000000    -0.103938   
C1052    C      0.620370000000     0.751270000000     0.067000000000     0.00116399 
C1053    C      0.499130000000     0.732420000000     0.428570000000     0.0376455  
C1054    C      0.979240000000     0.751670000000     0.447230000000    -0.251679   
C1055    C      0.959360000000     0.770920000000     0.428570000000     0.0376036  
C1056    C      0.959360000000     0.770930000000     0.391610000000     0.0375356  
C1057    C      0.479240000000     0.751670000000     0.372930000000    -0.25229    
C1058    C      0.499130000000     0.732420000000     0.391600000000     0.0377103  
C1059    C      0.959480000000     0.770670000000     0.141600000000     0.0375063  
C1060    C      0.479360000000     0.751410000000     0.122930000000    -0.252493   
C1061    C      0.499230000000     0.732140000000     0.141600000000     0.0378998  
C1062    C      0.499230000000     0.732140000000     0.178560000000     0.0376999  
C1063    C      0.979360000000     0.751410000000     0.197230000000    -0.251577   
C1064    C      0.959480000000     0.770660000000     0.178570000000     0.0375193  
C1065    C      0.979290000000     0.809410000000     0.035200000000     0.419657   
C1066    C      0.479310000000     0.693660000000     0.534970000000     0.420175   
C1067    C      0.537740000000     0.751590000000     0.535110000000     0.418639   
C1068    C      0.920860000000     0.751500000000     0.035050000000     0.418066   
C1069    C      0.979280000000     0.809410000000     0.784970000000     0.419769   
C1070    C      0.479320000000     0.693660000000     0.785190000000     0.420195   
C1071    C      0.537740000000     0.751590000000     0.785050000000     0.41836    
C1072    C      0.920860000000     0.751500000000     0.785110000000     0.418169   
C1073    C      0.729280000000     0.809520000000     0.535090000000     0.420693   
C1074    C      0.729320000000     0.693770000000     0.535080000000     0.419893   
C1075    C      0.787740000000     0.751650000000     0.535090000000     0.41837    
C1076    C      0.670860000000     0.751600000000     0.035070000000     0.418306   
C1077    C      0.729280000000     0.809520000000     0.785080000000     0.42078    
C1078    C      0.729320000000     0.693770000000     0.785080000000     0.419551   
C1079    C      0.787740000000     0.751650000000     0.785080000000     0.418373   
C1080    C      0.670860000000     0.751600000000     0.785090000000     0.418368   
C1081    C      0.979230000000     0.941020000000     0.035180000000     0.343216   
C1082    C      0.979370000000     0.562050000000     0.534990000000     0.344011   
C1083    C      0.943650000000     0.501650000000     0.591200000000     0.354532   
C1084    C      0.014950000000     0.001420000000     0.978970000000     0.35639    
C1085    C      0.979220000000     0.941020000000     0.784980000000     0.343282   
C1086    C      0.979380000000     0.562050000000     0.785180000000     0.344129   
C1087    C      0.014950000000     0.501420000000     0.841200000000     0.356516   
C1088    C      0.943650000000     0.001660000000     0.728970000000     0.355346   
C1089    C      0.729280000000     0.941120000000     0.035090000000     0.345622   
C1090    C      0.729310000000     0.562150000000     0.535070000000     0.346319   
C1091    C      0.693650000000     0.501660000000     0.591200000000     0.354197   
C1092    C      0.764950000000     0.001620000000     0.978970000000     0.354411   
C1093    C      0.729310000000     0.562150000000     0.785090000000     0.346519   
C1094    C      0.729290000000     0.941130000000     0.785080000000     0.34565    
C1095    C      0.693650000000     0.001650000000     0.728970000000     0.355014   
C1096    C      0.764950000000     0.501630000000     0.841200000000     0.354165   
C1097    C      0.785690000000     0.529240000000     0.928460000000    -0.00151796 
C1098    C      0.782980000000     0.001610000000     0.946700000000    -0.0889066  
C1099    C      0.785690000000     0.974000000000     0.928430000000     0.00315931 
C1100    C      0.785690000000     0.974010000000     0.891710000000     0.00326068 
C1101    C      0.782990000000     0.501630000000     0.873460000000    -0.0840318  
C1102    C      0.785700000000     0.529250000000     0.891730000000    -0.00142937 
C1103    C      0.672900000000     0.974050000000     0.641710000000     0.0033715  
C1104    C      0.675610000000     0.501670000000     0.623460000000    -0.0840159  
C1105    C      0.672920000000     0.529280000000     0.641730000000    -0.00141157 
C1106    C      0.672920000000     0.529280000000     0.678460000000    -0.0014671  
C1107    C      0.675610000000     0.001650000000     0.696710000000    -0.0889645  
C1108    C      0.672890000000     0.974040000000     0.678440000000     0.00330278 
C1109    C      0.535590000000     0.973740000000     0.928450000000     0.0032498  
C1110    C      0.032990000000     0.001360000000     0.946700000000    -0.0891998  
C1111    C      0.035790000000     0.528970000000     0.928440000000    -0.00126707 
C1112    C      0.035790000000     0.528960000000     0.891710000000    -0.00102527 
C1113    C      0.032990000000     0.501350000000     0.873460000000    -0.0845616  
C1114    C      0.535600000000     0.973730000000     0.891720000000     0.00331035 
C1115    C      0.423010000000     0.529340000000     0.641720000000    -0.00136065 
C1116    C      0.925620000000     0.501710000000     0.623460000000    -0.0842563  
C1117    C      0.922820000000     0.974100000000     0.641730000000     0.00313654 
C1118    C      0.922810000000     0.974110000000     0.678450000000     0.00321497 
C1119    C      0.925620000000     0.001720000000     0.696710000000    -0.0892552  
C1120    C      0.423000000000     0.529340000000     0.678440000000    -0.00126753 
C1121    C      0.741780000000     0.643870000000     0.756540000000     0.00847112 
C1122    C      0.729320000000     0.660110000000     0.785090000000    -0.108966   
C1123    C      0.716860000000     0.643880000000     0.813630000000     0.00846797 
C1124    C      0.716540000000     0.612030000000     0.813440000000    -0.0118152  
C1125    C      0.729320000000     0.595810000000     0.785090000000    -0.0770206  
C1126    C      0.742100000000     0.612020000000     0.756730000000    -0.0117899  
C1127    C      0.742180000000     0.891250000000     0.756800000000    -0.0124871  
C1128    C      0.729280000000     0.907470000000     0.785080000000    -0.0755178  
C1129    C      0.716380000000     0.891250000000     0.813370000000    -0.0124984  
C1130    C      0.716700000000     0.859400000000     0.813560000000     0.0101644  
C1131    C      0.729280000000     0.843170000000     0.785080000000    -0.109709   
C1132    C      0.741860000000     0.859390000000     0.756610000000     0.0101392  
C1133    C      0.716870000000     0.643880000000     0.006530000000     0.00904344 
C1134    C      0.729320000000     0.660110000000     0.535070000000    -0.109096   
C1135    C      0.741780000000     0.643880000000     0.563620000000     0.00853107 
C1136    C      0.742100000000     0.612020000000     0.563430000000    -0.0118332  
C1137    C      0.729320000000     0.595810000000     0.535070000000    -0.0769326  
C1138    C      0.716540000000     0.612020000000     0.006720000000    -0.0111856  
C1139    C      0.741850000000     0.859400000000     0.563570000000     0.0101099  
C1140    C      0.729270000000     0.843170000000     0.035100000000    -0.109714   
C1141    C      0.716690000000     0.859400000000     0.006620000000     0.010638   
C1142    C      0.716380000000     0.891250000000     0.006810000000    -0.011801   
C1143    C      0.729280000000     0.907470000000     0.035100000000    -0.0757429  
C1144    C      0.742180000000     0.891250000000     0.563380000000    -0.0124626  
C1145    C      0.749100000000     0.732430000000     0.928570000000     0.0374631  
C1146    C      0.729210000000     0.751680000000     0.947240000000    -0.251933   
C1147    C      0.709320000000     0.770930000000     0.928570000000     0.0374997  
C1148    C      0.709330000000     0.770940000000     0.891610000000     0.0377941  
C1149    C      0.729210000000     0.751680000000     0.872930000000    -0.252361   
C1150    C      0.749100000000     0.732430000000     0.891600000000     0.0377621  
C1151    C      0.709520000000     0.732410000000     0.641600000000     0.0377066  
C1152    C      0.729390000000     0.751680000000     0.622930000000    -0.252268   
C1153    C      0.749260000000     0.770940000000     0.641610000000     0.0378458  
C1154    C      0.749260000000     0.770940000000     0.678560000000     0.0377545  
C1155    C      0.729390000000     0.751670000000     0.697240000000    -0.25226    
C1156    C      0.709520000000     0.732410000000     0.678570000000     0.0378     
C1157    C      0.992240000000     0.611930000000     0.756900000000    -0.0141912  
C1158    C      0.979410000000     0.595710000000     0.785210000000    -0.0758489  
C1159    C      0.466570000000     0.611920000000     0.813540000000    -0.0118824  
C1160    C      0.466880000000     0.643770000000     0.813740000000     0.00888852 
C1161    C      0.479370000000     0.660000000000     0.785220000000    -0.10929    
C1162    C      0.991900000000     0.643780000000     0.756710000000     0.00785982 
C1163    C      0.466690000000     0.859290000000     0.813450000000     0.00966248 
C1164    C      0.979230000000     0.843070000000     0.784950000000    -0.109064   
C1165    C      0.991740000000     0.859310000000     0.756440000000     0.00765158 
C1166    C      0.992050000000     0.891160000000     0.756630000000    -0.0140859  
C1167    C      0.979200000000     0.907370000000     0.784950000000    -0.0750099  
C1168    C      0.466350000000     0.891140000000     0.813260000000    -0.0122967  
C1169    C      0.870360000000     0.751320000000     0.816980000000     0.00120064 
C1170    C      0.886810000000     0.751550000000     0.785070000000    -0.103804   
C1171    C      0.870370000000     0.751860000000     0.753190000000     0.00109117 
C1172    C      0.838240000000     0.751900000000     0.753210000000     0.00130465 
C1173    C      0.821790000000     0.751640000000     0.785120000000    -0.103919   
C1174    C      0.838230000000     0.751350000000     0.817000000000     0.00117647 
C1175    C      0.588240000000     0.751260000000     0.753190000000     0.00125721 
C1176    C      0.571790000000     0.751570000000     0.785100000000    -0.103882   
C1177    C      0.588230000000     0.751850000000     0.816980000000     0.00111131 
C1178    C      0.620360000000     0.751860000000     0.816960000000     0.00127755 
C1179    C      0.636810000000     0.751580000000     0.785050000000    -0.103898   
C1180    C      0.620370000000     0.751270000000     0.753170000000     0.00115598 
C1181    C      0.991890000000     0.643790000000     0.563460000000     0.00784715 
C1182    C      0.479360000000     0.660000000000     0.534950000000    -0.10926    
C1183    C      0.466870000000     0.643770000000     0.006430000000     0.00942464 
C1184    C      0.466560000000     0.611910000000     0.006630000000    -0.0112645  
C1185    C      0.479400000000     0.595700000000     0.534960000000    -0.0768398  
C1186    C      0.992230000000     0.611940000000     0.563270000000    -0.0141501  
C1187    C      0.966690000000     0.859290000000     0.006720000000     0.0100901  
C1188    C      0.979240000000     0.843070000000     0.035220000000    -0.109062   
C1189    C      0.491750000000     0.859310000000     0.563730000000     0.00911319 
C1190    C      0.492050000000     0.891160000000     0.563530000000    -0.0119834  
C1191    C      0.979210000000     0.907370000000     0.035210000000    -0.0751089  
C1192    C      0.966360000000     0.891140000000     0.006910000000    -0.0121758  
C1193    C      0.870360000000     0.751320000000     0.003190000000     0.00180192 
C1194    C      0.886810000000     0.751560000000     0.035100000000    -0.103883   
C1195    C      0.870370000000     0.751860000000     0.566980000000     0.0011138  
C1196    C      0.838240000000     0.751910000000     0.566960000000     0.00129133 
C1197    C      0.821790000000     0.751640000000     0.535050000000    -0.103905   
C1198    C      0.838230000000     0.751350000000     0.003160000000     0.0016644  
C1199    C      0.588240000000     0.751270000000     0.566980000000     0.00132376 
C1200    C      0.571790000000     0.751570000000     0.535070000000    -0.103992   
C1201    C      0.588230000000     0.751840000000     0.003190000000     0.00172901 
C1202    C      0.620360000000     0.751860000000     0.003210000000     0.00181334 
C1203    C      0.636810000000     0.751580000000     0.535120000000    -0.103872   
C1204    C      0.620370000000     0.751270000000     0.567000000000     0.0011303  
C1205    C      0.499130000000     0.732420000000     0.928570000000     0.0373603  
C1206    C      0.979240000000     0.751670000000     0.947240000000    -0.251407   
C1207    C      0.959360000000     0.770920000000     0.928570000000     0.0373642  
C1208    C      0.959360000000     0.770920000000     0.891610000000     0.0376566  
C1209    C      0.479240000000     0.751670000000     0.872930000000    -0.252396   
C1210    C      0.499130000000     0.732420000000     0.891600000000     0.0378088  
C1211    C      0.959480000000     0.770670000000     0.641600000000     0.0374804  
C1212    C      0.479370000000     0.751410000000     0.622930000000    -0.252296   
C1213    C      0.499230000000     0.732140000000     0.641600000000     0.0378665  
C1214    C      0.499230000000     0.732140000000     0.678560000000     0.037772   
C1215    C      0.979360000000     0.751410000000     0.697240000000    -0.251788   
C1216    C      0.959480000000     0.770660000000     0.678570000000     0.0375988  
Cu1      Cu     0.979540000000     0.251500000000     0.071620000000     1.17714    
Cu2      Cu     0.479060000000     0.251570000000     0.498550000000     1.17813    
Cu3      Cu     0.979060000000     0.251580000000     0.321620000000     1.1764     
Cu4      Cu     0.479540000000     0.251500000000     0.248550000000     1.1781     
Cu5      Cu     0.229540000000     0.251640000000     0.071620000000     1.17871    
Cu6      Cu     0.229060000000     0.251650000000     0.498550000000     1.17835    
Cu7      Cu     0.229060000000     0.251650000000     0.321620000000     1.17818    
Cu8      Cu     0.229540000000     0.251640000000     0.248550000000     1.17834    
Cu9      Cu     0.002650000000     0.001530000000     0.053940000000     0.847976   
Cu10     Cu     0.455960000000     0.501540000000     0.516220000000     0.849439   
Cu11     Cu     0.002650000000     0.001530000000     0.266220000000     0.848375   
Cu12     Cu     0.455960000000     0.501540000000     0.303940000000     0.849316   
Cu13     Cu     0.252650000000     0.001640000000     0.053940000000     0.845616   
Cu14     Cu     0.205950000000     0.501640000000     0.516220000000     0.849547   
Cu15     Cu     0.252650000000     0.501630000000     0.266220000000     0.84938    
Cu16     Cu     0.205950000000     0.001650000000     0.303950000000     0.845563   
Cu17     Cu     0.979540000000     0.251500000000     0.571620000000     1.17667    
Cu18     Cu     0.479060000000     0.251570000000     0.998550000000     1.17578    
Cu19     Cu     0.979060000000     0.251580000000     0.821620000000     1.17657    
Cu20     Cu     0.479540000000     0.251500000000     0.748550000000     1.17836    
Cu21     Cu     0.229540000000     0.251640000000     0.571620000000     1.17826    
Cu22     Cu     0.229060000000     0.251650000000     0.998550000000     1.17596    
Cu23     Cu     0.229060000000     0.251650000000     0.821620000000     1.17843    
Cu24     Cu     0.229540000000     0.251640000000     0.748550000000     1.17826    
Cu25     Cu     0.002650000000     0.001530000000     0.553940000000     0.848123   
Cu26     Cu     0.455960000000     0.501540000000     0.016230000000     0.850088   
Cu27     Cu     0.002650000000     0.001530000000     0.766220000000     0.848414   
Cu28     Cu     0.455960000000     0.501540000000     0.803940000000     0.849221   
Cu29     Cu     0.252640000000     0.001640000000     0.553940000000     0.845677   
Cu30     Cu     0.205950000000     0.501640000000     0.016230000000     0.850037   
Cu31     Cu     0.252640000000     0.501630000000     0.766230000000     0.84927    
Cu32     Cu     0.205950000000     0.001650000000     0.803940000000     0.845525   
Cu33     Cu     0.979540000000     0.751500000000     0.071620000000     1.17707    
Cu34     Cu     0.479060000000     0.751570000000     0.498550000000     1.1781     
Cu35     Cu     0.979070000000     0.751580000000     0.321620000000     1.17656    
Cu36     Cu     0.479540000000     0.751500000000     0.248550000000     1.17811    
Cu37     Cu     0.229540000000     0.751640000000     0.071620000000     1.17867    
Cu38     Cu     0.229060000000     0.751650000000     0.498550000000     1.17809    
Cu39     Cu     0.229060000000     0.751650000000     0.321620000000     1.17815    
Cu40     Cu     0.229540000000     0.751640000000     0.248550000000     1.17832    
Cu41     Cu     0.002650000000     0.501530000000     0.053940000000     0.851719   
Cu42     Cu     0.455960000000     0.001540000000     0.516220000000     0.845641   
Cu43     Cu     0.002650000000     0.501530000000     0.266220000000     0.852125   
Cu44     Cu     0.455960000000     0.001540000000     0.303940000000     0.845454   
Cu45     Cu     0.252640000000     0.501640000000     0.053940000000     0.849176   
Cu46     Cu     0.205950000000     0.001640000000     0.516220000000     0.845701   
Cu47     Cu     0.252640000000     0.001630000000     0.266220000000     0.845674   
Cu48     Cu     0.205950000000     0.501650000000     0.303940000000     0.849432   
Cu49     Cu     0.979540000000     0.751500000000     0.571620000000     1.17663    
Cu50     Cu     0.479060000000     0.751570000000     0.998550000000     1.17574    
Cu51     Cu     0.979060000000     0.751580000000     0.821620000000     1.17633    
Cu52     Cu     0.479540000000     0.751500000000     0.748550000000     1.17833    
Cu53     Cu     0.229540000000     0.751640000000     0.571620000000     1.17825    
Cu54     Cu     0.229060000000     0.751650000000     0.998550000000     1.17598    
Cu55     Cu     0.229060000000     0.751650000000     0.821620000000     1.17815    
Cu56     Cu     0.229540000000     0.751640000000     0.748550000000     1.17826    
Cu57     Cu     0.002650000000     0.501530000000     0.553940000000     0.851898   
Cu58     Cu     0.455960000000     0.001540000000     0.016230000000     0.846298   
Cu59     Cu     0.002650000000     0.501530000000     0.766220000000     0.852152   
Cu60     Cu     0.455960000000     0.001540000000     0.803940000000     0.845476   
Cu61     Cu     0.252650000000     0.501640000000     0.553940000000     0.849312   
Cu62     Cu     0.205950000000     0.001640000000     0.016230000000     0.846386   
Cu63     Cu     0.252640000000     0.001630000000     0.766230000000     0.845572   
Cu64     Cu     0.205950000000     0.501650000000     0.803940000000     0.849224   
Cu65     Cu     0.479540000000     0.251500000000     0.071620000000     1.17898    
Cu66     Cu     0.979060000000     0.251570000000     0.498550000000     1.1763     
Cu67     Cu     0.479060000000     0.251580000000     0.321620000000     1.17846    
Cu68     Cu     0.979540000000     0.251500000000     0.248550000000     1.17627    
Cu69     Cu     0.729540000000     0.251640000000     0.071620000000     1.17871    
Cu70     Cu     0.729060000000     0.251650000000     0.498550000000     1.17836    
Cu71     Cu     0.729060000000     0.251650000000     0.321620000000     1.17818    
Cu72     Cu     0.729540000000     0.251640000000     0.248550000000     1.17835    
Cu73     Cu     0.502650000000     0.001530000000     0.053940000000     0.845319   
Cu74     Cu     0.955960000000     0.501540000000     0.516220000000     0.847743   
Cu75     Cu     0.502650000000     0.001530000000     0.266220000000     0.845705   
Cu76     Cu     0.955960000000     0.501540000000     0.303940000000     0.847694   
Cu77     Cu     0.752650000000     0.001640000000     0.053940000000     0.845656   
Cu78     Cu     0.705950000000     0.501640000000     0.516220000000     0.849315   
Cu79     Cu     0.752640000000     0.501630000000     0.266220000000     0.84936    
Cu80     Cu     0.705950000000     0.001650000000     0.303950000000     0.845788   
Cu81     Cu     0.479540000000     0.251500000000     0.571620000000     1.17851    
Cu82     Cu     0.979060000000     0.251570000000     0.998550000000     1.17394    
Cu83     Cu     0.479060000000     0.251580000000     0.821620000000     1.17819    
Cu84     Cu     0.979540000000     0.251500000000     0.748550000000     1.17649    
Cu85     Cu     0.729540000000     0.251640000000     0.571620000000     1.17827    
Cu86     Cu     0.729060000000     0.251650000000     0.998550000000     1.17599    
Cu87     Cu     0.729060000000     0.251650000000     0.821620000000     1.17844    
Cu88     Cu     0.729540000000     0.251640000000     0.748550000000     1.17827    
Cu89     Cu     0.502650000000     0.001530000000     0.553940000000     0.845566   
Cu90     Cu     0.955960000000     0.501540000000     0.016230000000     0.848459   
Cu91     Cu     0.502650000000     0.001530000000     0.766220000000     0.845699   
Cu92     Cu     0.955960000000     0.501540000000     0.803940000000     0.847598   
Cu93     Cu     0.752650000000     0.001640000000     0.553940000000     0.845709   
Cu94     Cu     0.705950000000     0.501640000000     0.016230000000     0.850006   
Cu95     Cu     0.752640000000     0.501630000000     0.766230000000     0.849324   
Cu96     Cu     0.705950000000     0.001650000000     0.803940000000     0.845482   
Cu97     Cu     0.479540000000     0.751500000000     0.071620000000     1.17896    
Cu98     Cu     0.979060000000     0.751570000000     0.498550000000     1.17628    
Cu99     Cu     0.479060000000     0.751580000000     0.321620000000     1.17819    
Cu100    Cu     0.979540000000     0.751500000000     0.248550000000     1.17624    
Cu101    Cu     0.729540000000     0.751640000000     0.071620000000     1.17869    
Cu102    Cu     0.729060000000     0.751650000000     0.498550000000     1.17811    
Cu103    Cu     0.729060000000     0.751650000000     0.321620000000     1.17817    
Cu104    Cu     0.729540000000     0.751640000000     0.248550000000     1.17832    
Cu105    Cu     0.502650000000     0.501530000000     0.053940000000     0.849114   
Cu106    Cu     0.955960000000     0.001540000000     0.516220000000     0.844097   
Cu107    Cu     0.502650000000     0.501530000000     0.266220000000     0.849415   
Cu108    Cu     0.955960000000     0.001540000000     0.303940000000     0.843884   
Cu109    Cu     0.752640000000     0.501640000000     0.053940000000     0.849219   
Cu110    Cu     0.705950000000     0.001640000000     0.516220000000     0.845803   
Cu111    Cu     0.752650000000     0.001630000000     0.266220000000     0.845742   
Cu112    Cu     0.705950000000     0.501650000000     0.303940000000     0.849286   
Cu113    Cu     0.479540000000     0.751500000000     0.571620000000     1.17849    
Cu114    Cu     0.979060000000     0.751570000000     0.998550000000     1.17413    
Cu115    Cu     0.479060000000     0.751580000000     0.821620000000     1.17817    
Cu116    Cu     0.979540000000     0.751500000000     0.748550000000     1.17646    
Cu117    Cu     0.729540000000     0.751640000000     0.571620000000     1.17826    
Cu118    Cu     0.729060000000     0.751650000000     0.998550000000     1.17596    
Cu119    Cu     0.729060000000     0.751650000000     0.821620000000     1.17818    
Cu120    Cu     0.729540000000     0.751640000000     0.748550000000     1.17827    
Cu121    Cu     0.502650000000     0.501530000000     0.553940000000     0.84918    
Cu122    Cu     0.955960000000     0.001540000000     0.016230000000     0.844759   
Cu123    Cu     0.502650000000     0.501530000000     0.766220000000     0.849445   
Cu124    Cu     0.955960000000     0.001540000000     0.803940000000     0.843906   
Cu125    Cu     0.752640000000     0.501640000000     0.553940000000     0.849309   
Cu126    Cu     0.705950000000     0.001640000000     0.016230000000     0.846259   
Cu127    Cu     0.752640000000     0.001630000000     0.766230000000     0.845595   
Cu128    Cu     0.705950000000     0.501650000000     0.803940000000     0.849292   
H1       H      0.283140000000     0.050730000000     0.442240000000     0.0370754  
H2       H      0.283120000000     0.452510000000     0.442200000000     0.0374215  
H3       H      0.283130000000     0.452520000000     0.377930000000     0.0374332  
H4       H      0.283140000000     0.050750000000     0.377970000000     0.0370547  
H5       H      0.175440000000     0.452560000000     0.127920000000     0.0376197  
H6       H      0.175490000000     0.050780000000     0.127970000000     0.0369669  
H7       H      0.175490000000     0.050770000000     0.192240000000     0.036952   
H8       H      0.175440000000     0.452540000000     0.192200000000     0.037595   
H9       H      0.032960000000     0.452250000000     0.442230000000     0.0377892  
H10      H      0.533310000000     0.050470000000     0.442220000000     0.0369902  
H11      H      0.533310000000     0.050470000000     0.377940000000     0.0369739  
H12      H      0.032960000000     0.452240000000     0.377960000000     0.0378026  
H13      H      0.925640000000     0.050820000000     0.127940000000     0.0372224  
H14      H      0.425300000000     0.452600000000     0.127950000000     0.0371865  
H15      H      0.425300000000     0.452610000000     0.192220000000     0.0371663  
H16      H      0.925640000000     0.050830000000     0.192210000000     0.0371758  
H17      H      0.251630000000     0.155790000000     0.234240000000     0.0410536  
H18      H      0.207010000000     0.155800000000     0.335930000000     0.0408925  
H19      H      0.206660000000     0.100100000000     0.335720000000     0.0451495  
H20      H      0.251970000000     0.100080000000     0.234460000000     0.0452559  
H21      H      0.252160000000     0.403180000000     0.234580000000     0.0451749  
H22      H      0.206410000000     0.403190000000     0.335590000000     0.0452939  
H23      H      0.206740000000     0.347480000000     0.335800000000     0.0393527  
H24      H      0.251810000000     0.347470000000     0.234360000000     0.0391722  
H25      H      0.207020000000     0.155790000000     0.484230000000     0.0409017  
H26      H      0.251640000000     0.155790000000     0.085920000000     0.0410517  
H27      H      0.251980000000     0.100090000000     0.085700000000     0.045252   
H28      H      0.206660000000     0.100090000000     0.484440000000     0.0451515  
H29      H      0.251810000000     0.347470000000     0.085810000000     0.0391725  
H30      H      0.206740000000     0.347470000000     0.484380000000     0.0393403  
H31      H      0.206400000000     0.403180000000     0.484590000000     0.0453325  
H32      H      0.252150000000     0.403180000000     0.085600000000     0.0452122  
H33      H      0.264500000000     0.217470000000     0.442760000000     0.0241773  
H34      H      0.193880000000     0.285860000000     0.442750000000     0.0238381  
H35      H      0.193880000000     0.285860000000     0.377420000000     0.0238429  
H36      H      0.264510000000     0.217470000000     0.377400000000     0.0242116  
H37      H      0.194120000000     0.217440000000     0.127400000000     0.0240272  
H38      H      0.264700000000     0.285880000000     0.127420000000     0.0236337  
H39      H      0.264700000000     0.285880000000     0.192750000000     0.0236416  
H40      H      0.194120000000     0.217440000000     0.192760000000     0.0240399  
H41      H      0.502160000000     0.100000000000     0.234640000000     0.0450756  
H42      H      0.956650000000     0.099980000000     0.335790000000     0.0452638  
H43      H      0.956970000000     0.155690000000     0.336010000000     0.0408192  
H44      H      0.501790000000     0.155710000000     0.234430000000     0.039158   
H45      H      0.956780000000     0.347370000000     0.335720000000     0.039198   
H46      H      0.501660000000     0.347390000000     0.234170000000     0.0410627  
H47      H      0.501980000000     0.403100000000     0.234390000000     0.0453713  
H48      H      0.956410000000     0.403070000000     0.335510000000     0.0451693  
H49      H      0.382270000000     0.251100000000     0.342040000000     0.0429492  
H50      H      0.382300000000     0.252070000000     0.228130000000     0.0427955  
H51      H      0.326330000000     0.252150000000     0.228150000000     0.0429096  
H52      H      0.326310000000     0.251140000000     0.342060000000     0.0427815  
H53      H      0.076330000000     0.251010000000     0.228130000000     0.0431214  
H54      H      0.076310000000     0.252080000000     0.342040000000     0.0430665  
H55      H      0.132270000000     0.252110000000     0.342020000000     0.0429393  
H56      H      0.132290000000     0.251010000000     0.228110000000     0.042823   
H57      H      0.501790000000     0.155720000000     0.085730000000     0.0392021  
H58      H      0.956970000000     0.155680000000     0.484150000000     0.0408211  
H59      H      0.956650000000     0.099970000000     0.484380000000     0.0452424  
H60      H      0.502160000000     0.100010000000     0.085530000000     0.0450449  
H61      H      0.456780000000     0.347360000000     0.484450000000     0.0392971  
H62      H      0.001660000000     0.347400000000     0.086000000000     0.0427253  
H63      H      0.001990000000     0.403100000000     0.085770000000     0.0470061  
H64      H      0.456420000000     0.403060000000     0.484660000000     0.0451592  
H65      H      0.382270000000     0.251100000000     0.478120000000     0.042934   
H66      H      0.382300000000     0.252080000000     0.092040000000     0.0427903  
H67      H      0.326330000000     0.252160000000     0.092020000000     0.0429173  
H68      H      0.326310000000     0.251140000000     0.478110000000     0.0427873  
H69      H      0.076330000000     0.251010000000     0.092040000000     0.0431044  
H70      H      0.076310000000     0.252070000000     0.478130000000     0.0430482  
H71      H      0.132270000000     0.252100000000     0.478150000000     0.0429476  
H72      H      0.132290000000     0.251020000000     0.092060000000     0.0428341  
H73      H      0.014530000000     0.217460000000     0.442760000000     0.0257918  
H74      H      0.443900000000     0.285840000000     0.442750000000     0.0237356  
H75      H      0.443900000000     0.285850000000     0.377420000000     0.0237483  
H76      H      0.014530000000     0.217460000000     0.377400000000     0.0257604  
H77      H      0.444090000000     0.285640000000     0.127410000000     0.0239895  
H78      H      0.014680000000     0.217210000000     0.127410000000     0.02505    
H79      H      0.014680000000     0.217210000000     0.192740000000     0.0250861  
H80      H      0.444090000000     0.285630000000     0.192770000000     0.0240626  
H81      H      0.283140000000     0.050730000000     0.942240000000     0.0369802  
H82      H      0.283120000000     0.452510000000     0.942200000000     0.0373272  
H83      H      0.283130000000     0.452520000000     0.877930000000     0.0373959  
H84      H      0.283140000000     0.050750000000     0.877970000000     0.0370334  
H85      H      0.175440000000     0.452560000000     0.627920000000     0.037599   
H86      H      0.175490000000     0.050780000000     0.627970000000     0.0369626  
H87      H      0.175480000000     0.050770000000     0.692240000000     0.0369595  
H88      H      0.175440000000     0.452540000000     0.692200000000     0.0376155  
H89      H      0.032960000000     0.452250000000     0.942230000000     0.0377444  
H90      H      0.533310000000     0.050470000000     0.942210000000     0.036903   
H91      H      0.533310000000     0.050470000000     0.877940000000     0.0369375  
H92      H      0.032960000000     0.452240000000     0.877960000000     0.0377456  
H93      H      0.925640000000     0.050820000000     0.627940000000     0.0372102  
H94      H      0.425300000000     0.452600000000     0.627950000000     0.0371712  
H95      H      0.425300000000     0.452610000000     0.692220000000     0.037161   
H96      H      0.925640000000     0.050830000000     0.692210000000     0.0371766  
H97      H      0.251630000000     0.155790000000     0.734240000000     0.0410707  
H98      H      0.207010000000     0.155800000000     0.835940000000     0.0408758  
H99      H      0.206660000000     0.100100000000     0.835720000000     0.0451243  
H100     H      0.251970000000     0.100080000000     0.734460000000     0.0452589  
H101     H      0.252160000000     0.403180000000     0.734580000000     0.0452143  
H102     H      0.206410000000     0.403190000000     0.835580000000     0.0453346  
H103     H      0.206740000000     0.347480000000     0.835800000000     0.0393052  
H104     H      0.251810000000     0.347470000000     0.734360000000     0.0391599  
H105     H      0.207020000000     0.155790000000     0.984220000000     0.0403551  
H106     H      0.251640000000     0.155790000000     0.585920000000     0.0410446  
H107     H      0.251980000000     0.100090000000     0.585700000000     0.0452733  
H108     H      0.206660000000     0.100090000000     0.984440000000     0.0445965  
H109     H      0.251810000000     0.347470000000     0.585810000000     0.0391615  
H110     H      0.206740000000     0.347470000000     0.984380000000     0.0388031  
H111     H      0.206400000000     0.403180000000     0.984590000000     0.0447801  
H112     H      0.252150000000     0.403180000000     0.585600000000     0.0452147  
H113     H      0.264510000000     0.217470000000     0.942760000000     0.0241496  
H114     H      0.193880000000     0.285860000000     0.942750000000     0.0238163  
H115     H      0.193880000000     0.285860000000     0.877420000000     0.0237815  
H116     H      0.264510000000     0.217470000000     0.877400000000     0.0241496  
H117     H      0.194120000000     0.217440000000     0.627400000000     0.0240488  
H118     H      0.264700000000     0.285880000000     0.627430000000     0.0236317  
H119     H      0.264700000000     0.285870000000     0.692750000000     0.0236646  
H120     H      0.194120000000     0.217440000000     0.692760000000     0.0240253  
H121     H      0.502160000000     0.100000000000     0.734640000000     0.0450572  
H122     H      0.956650000000     0.099980000000     0.835790000000     0.045199   
H123     H      0.956970000000     0.155690000000     0.836010000000     0.0408152  
H124     H      0.501790000000     0.155710000000     0.734430000000     0.0391719  
H125     H      0.956780000000     0.347370000000     0.835720000000     0.0391795  
H126     H      0.501660000000     0.347390000000     0.734170000000     0.041073   
H127     H      0.501980000000     0.403100000000     0.734390000000     0.045368   
H128     H      0.956410000000     0.403070000000     0.835510000000     0.0451429  
H129     H      0.382270000000     0.251100000000     0.842040000000     0.0429242  
H130     H      0.382290000000     0.252070000000     0.728130000000     0.0427879  
H131     H      0.326330000000     0.252150000000     0.728150000000     0.0429222  
H132     H      0.326310000000     0.251140000000     0.842060000000     0.0427727  
H133     H      0.076330000000     0.251010000000     0.728130000000     0.0431227  
H134     H      0.076310000000     0.252080000000     0.842040000000     0.0430416  
H135     H      0.132270000000     0.252110000000     0.842020000000     0.0429204  
H136     H      0.132290000000     0.251010000000     0.728110000000     0.042824   
H137     H      0.501790000000     0.155720000000     0.585730000000     0.0391791  
H138     H      0.956970000000     0.155680000000     0.984150000000     0.0402832  
H139     H      0.956640000000     0.099970000000     0.984380000000     0.0446857  
H140     H      0.502160000000     0.100010000000     0.585530000000     0.0450532  
H141     H      0.456790000000     0.347360000000     0.984450000000     0.0387635  
H142     H      0.001660000000     0.347400000000     0.586000000000     0.0427255  
H143     H      0.001990000000     0.403100000000     0.585770000000     0.0469933  
H144     H      0.456420000000     0.403060000000     0.984660000000     0.0446142  
H145     H      0.382270000000     0.251100000000     0.978130000000     0.0424128  
H146     H      0.382290000000     0.252080000000     0.592040000000     0.0427911  
H147     H      0.326330000000     0.252160000000     0.592020000000     0.0429126  
H148     H      0.326300000000     0.251140000000     0.978110000000     0.0422802  
H149     H      0.076330000000     0.251020000000     0.592040000000     0.0431079  
H150     H      0.076310000000     0.252070000000     0.978130000000     0.0425175  
H151     H      0.132270000000     0.252100000000     0.978150000000     0.0424216  
H152     H      0.132290000000     0.251020000000     0.592060000000     0.0428318  
H153     H      0.014530000000     0.217460000000     0.942760000000     0.0257328  
H154     H      0.443900000000     0.285840000000     0.942750000000     0.0236816  
H155     H      0.443900000000     0.285850000000     0.877420000000     0.0237184  
H156     H      0.014530000000     0.217460000000     0.877400000000     0.0257138  
H157     H      0.444090000000     0.285640000000     0.627410000000     0.024026   
H158     H      0.014680000000     0.217210000000     0.627420000000     0.0250597  
H159     H      0.014680000000     0.217210000000     0.692740000000     0.0250837  
H160     H      0.444090000000     0.285640000000     0.692770000000     0.0240061  
H161     H      0.283140000000     0.550730000000     0.442240000000     0.0372963  
H162     H      0.283120000000     0.952510000000     0.442200000000     0.037353   
H163     H      0.283130000000     0.952520000000     0.377930000000     0.0373468  
H164     H      0.283140000000     0.550750000000     0.377970000000     0.0373018  
H165     H      0.175440000000     0.952560000000     0.127920000000     0.0375422  
H166     H      0.175490000000     0.550780000000     0.127970000000     0.0372156  
H167     H      0.175490000000     0.550770000000     0.192240000000     0.037159   
H168     H      0.175440000000     0.952540000000     0.192200000000     0.0375309  
H169     H      0.032960000000     0.952250000000     0.442230000000     0.0377511  
H170     H      0.533310000000     0.550470000000     0.442220000000     0.0372353  
H171     H      0.533310000000     0.550470000000     0.377940000000     0.037213   
H172     H      0.032960000000     0.952240000000     0.377960000000     0.0377168  
H173     H      0.925640000000     0.550820000000     0.127940000000     0.0374598  
H174     H      0.425300000000     0.952600000000     0.127950000000     0.0371188  
H175     H      0.425300000000     0.952610000000     0.192220000000     0.0370812  
H176     H      0.925640000000     0.550830000000     0.192210000000     0.0374001  
H177     H      0.251630000000     0.655790000000     0.234240000000     0.0410593  
H178     H      0.207010000000     0.655800000000     0.335930000000     0.0408996  
H179     H      0.206660000000     0.600090000000     0.335720000000     0.0451703  
H180     H      0.251970000000     0.600080000000     0.234460000000     0.0452779  
H181     H      0.252160000000     0.903180000000     0.234580000000     0.0457384  
H182     H      0.206410000000     0.903190000000     0.335590000000     0.0458537  
H183     H      0.206740000000     0.847480000000     0.335800000000     0.0394201  
H184     H      0.251810000000     0.847470000000     0.234360000000     0.0392392  
H185     H      0.207020000000     0.655790000000     0.484230000000     0.0409014  
H186     H      0.251630000000     0.655800000000     0.085920000000     0.0410647  
H187     H      0.251980000000     0.600090000000     0.085700000000     0.045279   
H188     H      0.206660000000     0.600090000000     0.484440000000     0.0451863  
H189     H      0.251810000000     0.847480000000     0.085810000000     0.0392436  
H190     H      0.206740000000     0.847470000000     0.484380000000     0.0394141  
H191     H      0.206400000000     0.903180000000     0.484590000000     0.0458832  
H192     H      0.252150000000     0.903180000000     0.085600000000     0.0457529  
H193     H      0.264510000000     0.717470000000     0.442760000000     0.0241911  
H194     H      0.193880000000     0.785860000000     0.442750000000     0.0238881  
H195     H      0.193880000000     0.785860000000     0.377420000000     0.0239099  
H196     H      0.264510000000     0.717470000000     0.377400000000     0.0241889  
H197     H      0.194120000000     0.717440000000     0.127400000000     0.0240213  
H198     H      0.264700000000     0.785880000000     0.127420000000     0.0236756  
H199     H      0.264700000000     0.785870000000     0.192750000000     0.0237055  
H200     H      0.194120000000     0.717440000000     0.192760000000     0.0240134  
H201     H      0.502160000000     0.600000000000     0.234640000000     0.0450977  
H202     H      0.956650000000     0.599980000000     0.335790000000     0.0452814  
H203     H      0.956970000000     0.655690000000     0.336010000000     0.0408226  
H204     H      0.501790000000     0.655710000000     0.234430000000     0.0391627  
H205     H      0.956780000000     0.847370000000     0.335720000000     0.0392716  
H206     H      0.501660000000     0.847390000000     0.234170000000     0.0411479  
H207     H      0.501980000000     0.903100000000     0.234390000000     0.0459192  
H208     H      0.956410000000     0.903070000000     0.335510000000     0.0457141  
H209     H      0.382270000000     0.751100000000     0.342040000000     0.0429642  
H210     H      0.382290000000     0.752080000000     0.228130000000     0.0427986  
H211     H      0.326330000000     0.752150000000     0.228150000000     0.0429163  
H212     H      0.326300000000     0.751140000000     0.342060000000     0.0427951  
H213     H      0.076330000000     0.751010000000     0.228130000000     0.0431314  
H214     H      0.076310000000     0.752080000000     0.342040000000     0.0430777  
H215     H      0.132270000000     0.752110000000     0.342020000000     0.0429513  
H216     H      0.132290000000     0.751010000000     0.228110000000     0.0428375  
H217     H      0.501790000000     0.655720000000     0.085730000000     0.0391852  
H218     H      0.956970000000     0.655680000000     0.484150000000     0.0408164  
H219     H      0.956640000000     0.599970000000     0.484380000000     0.0452728  
H220     H      0.502160000000     0.600010000000     0.085530000000     0.045085   
H221     H      0.456780000000     0.847360000000     0.484450000000     0.0393633  
H222     H      0.001660000000     0.847400000000     0.086000000000     0.04282    
H223     H      0.001990000000     0.903110000000     0.085770000000     0.047538   
H224     H      0.456420000000     0.903060000000     0.484660000000     0.0457169  
H225     H      0.382270000000     0.751100000000     0.478120000000     0.0429431  
H226     H      0.382290000000     0.752080000000     0.092040000000     0.0427976  
H227     H      0.326330000000     0.752160000000     0.092020000000     0.0429254  
H228     H      0.326300000000     0.751140000000     0.478110000000     0.0428017  
H229     H      0.076330000000     0.751020000000     0.092040000000     0.0431223  
H230     H      0.076310000000     0.752070000000     0.478130000000     0.0430636  
H231     H      0.132270000000     0.752110000000     0.478150000000     0.0429576  
H232     H      0.132290000000     0.751020000000     0.092060000000     0.0428468  
H233     H      0.014530000000     0.717460000000     0.442760000000     0.0257451  
H234     H      0.443900000000     0.785840000000     0.442750000000     0.0237737  
H235     H      0.443900000000     0.785850000000     0.377420000000     0.0238018  
H236     H      0.014530000000     0.717460000000     0.377400000000     0.0257661  
H237     H      0.444090000000     0.785640000000     0.127410000000     0.0240356  
H238     H      0.014680000000     0.717210000000     0.127410000000     0.0250338  
H239     H      0.014680000000     0.717210000000     0.192740000000     0.0250982  
H240     H      0.444090000000     0.785640000000     0.192770000000     0.0240547  
H241     H      0.283140000000     0.550730000000     0.942240000000     0.037215   
H242     H      0.283120000000     0.952510000000     0.942200000000     0.0372533  
H243     H      0.283130000000     0.952520000000     0.877930000000     0.0373235  
H244     H      0.283140000000     0.550740000000     0.877970000000     0.0372882  
H245     H      0.175440000000     0.952560000000     0.627920000000     0.0375341  
H246     H      0.175490000000     0.550780000000     0.627970000000     0.0371655  
H247     H      0.175480000000     0.550770000000     0.692240000000     0.0372056  
H248     H      0.175440000000     0.952540000000     0.692200000000     0.0375379  
H249     H      0.032960000000     0.952250000000     0.942230000000     0.0376355  
H250     H      0.533310000000     0.550470000000     0.942210000000     0.0371421  
H251     H      0.533310000000     0.550460000000     0.877940000000     0.0371783  
H252     H      0.032960000000     0.952240000000     0.877960000000     0.0376856  
H253     H      0.925640000000     0.550820000000     0.627940000000     0.0374366  
H254     H      0.425300000000     0.952600000000     0.627950000000     0.0370964  
H255     H      0.425300000000     0.952610000000     0.692220000000     0.0370972  
H256     H      0.925640000000     0.550830000000     0.692210000000     0.0374165  
H257     H      0.251630000000     0.655790000000     0.734240000000     0.04107    
H258     H      0.207010000000     0.655800000000     0.835940000000     0.0408866  
H259     H      0.206660000000     0.600100000000     0.835720000000     0.045154   
H260     H      0.251970000000     0.600080000000     0.734460000000     0.0452908  
H261     H      0.252150000000     0.903180000000     0.734580000000     0.0457705  
H262     H      0.206410000000     0.903190000000     0.835580000000     0.045885   
H263     H      0.206740000000     0.847480000000     0.835800000000     0.039382   
H264     H      0.251810000000     0.847470000000     0.734360000000     0.03923    
H265     H      0.207020000000     0.655790000000     0.984220000000     0.0403568  
H266     H      0.251640000000     0.655790000000     0.585920000000     0.0410358  
H267     H      0.251980000000     0.600090000000     0.585700000000     0.0453056  
H268     H      0.206660000000     0.600090000000     0.984440000000     0.0446204  
H269     H      0.251810000000     0.847480000000     0.585810000000     0.0392351  
H270     H      0.206740000000     0.847470000000     0.984380000000     0.0388776  
H271     H      0.206400000000     0.903180000000     0.984590000000     0.0453293  
H272     H      0.252150000000     0.903180000000     0.585600000000     0.0457615  
H273     H      0.264500000000     0.717470000000     0.942760000000     0.024097   
H274     H      0.193880000000     0.785860000000     0.942750000000     0.0238149  
H275     H      0.193880000000     0.785860000000     0.877420000000     0.0238831  
H276     H      0.264510000000     0.717470000000     0.877400000000     0.0241738  
H277     H      0.194120000000     0.717440000000     0.627400000000     0.0240365  
H278     H      0.264700000000     0.785880000000     0.627430000000     0.0236885  
H279     H      0.264700000000     0.785880000000     0.692750000000     0.0237121  
H280     H      0.194120000000     0.717440000000     0.692760000000     0.0240116  
H281     H      0.502160000000     0.600000000000     0.734640000000     0.0450933  
H282     H      0.956650000000     0.599980000000     0.835790000000     0.0452493  
H283     H      0.956970000000     0.655690000000     0.836010000000     0.0408007  
H284     H      0.501790000000     0.655710000000     0.734430000000     0.0391655  
H285     H      0.956780000000     0.847370000000     0.835720000000     0.0392496  
H286     H      0.501660000000     0.847390000000     0.734170000000     0.0411427  
H287     H      0.501980000000     0.903100000000     0.734390000000     0.0459198  
H288     H      0.956410000000     0.903070000000     0.835510000000     0.0456874  
H289     H      0.382270000000     0.751100000000     0.842040000000     0.0429399  
H290     H      0.382300000000     0.752080000000     0.728130000000     0.0428036  
H291     H      0.326330000000     0.752150000000     0.728150000000     0.0429218  
H292     H      0.326310000000     0.751140000000     0.842060000000     0.0427753  
H293     H      0.076330000000     0.751010000000     0.728130000000     0.0431406  
H294     H      0.076310000000     0.752080000000     0.842040000000     0.0430592  
H295     H      0.132270000000     0.752110000000     0.842020000000     0.0429306  
H296     H      0.132290000000     0.751010000000     0.728110000000     0.0428379  
H297     H      0.501790000000     0.655720000000     0.585730000000     0.0391883  
H298     H      0.956970000000     0.655680000000     0.984150000000     0.0402795  
H299     H      0.956650000000     0.599970000000     0.984380000000     0.0447225  
H300     H      0.502160000000     0.600010000000     0.585530000000     0.0450809  
H301     H      0.456780000000     0.847360000000     0.984450000000     0.0388183  
H302     H      0.001660000000     0.847400000000     0.586000000000     0.0428025  
H303     H      0.001990000000     0.903110000000     0.585770000000     0.0475599  
H304     H      0.456420000000     0.903060000000     0.984660000000     0.0451793  
H305     H      0.382270000000     0.751100000000     0.978130000000     0.0424213  
H306     H      0.382300000000     0.752090000000     0.592040000000     0.042798   
H307     H      0.326330000000     0.752160000000     0.592020000000     0.0429231  
H308     H      0.326310000000     0.751140000000     0.978110000000     0.0422928  
H309     H      0.076330000000     0.751010000000     0.592040000000     0.0431194  
H310     H      0.076310000000     0.752070000000     0.978130000000     0.0425336  
H311     H      0.132270000000     0.752100000000     0.978150000000     0.0424309  
H312     H      0.132290000000     0.751020000000     0.592060000000     0.042847   
H313     H      0.014530000000     0.717460000000     0.942760000000     0.0257062  
H314     H      0.443900000000     0.785840000000     0.942750000000     0.0237255  
H315     H      0.443900000000     0.785850000000     0.877420000000     0.0237504  
H316     H      0.014530000000     0.717460000000     0.877400000000     0.0257205  
H317     H      0.444090000000     0.785640000000     0.627410000000     0.0240897  
H318     H      0.014680000000     0.717210000000     0.627420000000     0.0250721  
H319     H      0.014680000000     0.717210000000     0.692740000000     0.0250739  
H320     H      0.444090000000     0.785640000000     0.692770000000     0.0240515  
H321     H      0.783140000000     0.050730000000     0.442240000000     0.0370755  
H322     H      0.783120000000     0.452510000000     0.442200000000     0.0374332  
H323     H      0.783130000000     0.452520000000     0.377930000000     0.0374465  
H324     H      0.783140000000     0.050750000000     0.377970000000     0.0370743  
H325     H      0.675440000000     0.452560000000     0.127920000000     0.0375936  
H326     H      0.675490000000     0.050780000000     0.127970000000     0.0369637  
H327     H      0.675480000000     0.050770000000     0.192240000000     0.0369132  
H328     H      0.675440000000     0.452540000000     0.192200000000     0.0375683  
H329     H      0.532960000000     0.452250000000     0.442230000000     0.0375155  
H330     H      0.033310000000     0.050470000000     0.442220000000     0.0372875  
H331     H      0.033310000000     0.050470000000     0.377940000000     0.0372416  
H332     H      0.532960000000     0.452240000000     0.377960000000     0.0375131  
H333     H      0.425640000000     0.050820000000     0.127940000000     0.0373588  
H334     H      0.925300000000     0.452600000000     0.127950000000     0.0370631  
H335     H      0.925300000000     0.452610000000     0.192220000000     0.0370263  
H336     H      0.425640000000     0.050830000000     0.192210000000     0.0372988  
H337     H      0.751630000000     0.155790000000     0.234240000000     0.0410594  
H338     H      0.707010000000     0.155800000000     0.335930000000     0.0408762  
H339     H      0.706660000000     0.100100000000     0.335720000000     0.045131   
H340     H      0.751970000000     0.100080000000     0.234460000000     0.0452588  
H341     H      0.752160000000     0.403180000000     0.234580000000     0.0451957  
H342     H      0.706410000000     0.403190000000     0.335590000000     0.0452892  
H343     H      0.706740000000     0.347480000000     0.335800000000     0.0393273  
H344     H      0.751810000000     0.347470000000     0.234360000000     0.03917    
H345     H      0.707010000000     0.155790000000     0.484230000000     0.0408765  
H346     H      0.751630000000     0.155790000000     0.085920000000     0.0410699  
H347     H      0.751980000000     0.100090000000     0.085700000000     0.045254   
H348     H      0.706660000000     0.100090000000     0.484440000000     0.0451358  
H349     H      0.751810000000     0.347470000000     0.085810000000     0.0391761  
H350     H      0.706740000000     0.347470000000     0.484380000000     0.0393148  
H351     H      0.706400000000     0.403180000000     0.484590000000     0.0453303  
H352     H      0.752150000000     0.403180000000     0.085600000000     0.0452184  
H353     H      0.764510000000     0.217470000000     0.442760000000     0.024205   
H354     H      0.693880000000     0.285860000000     0.442750000000     0.0238051  
H355     H      0.693880000000     0.285860000000     0.377420000000     0.0238399  
H356     H      0.764510000000     0.217470000000     0.377400000000     0.0242124  
H357     H      0.694120000000     0.217440000000     0.127400000000     0.0240114  
H358     H      0.764700000000     0.285880000000     0.127420000000     0.0236392  
H359     H      0.764700000000     0.285880000000     0.192750000000     0.0236468  
H360     H      0.694120000000     0.217440000000     0.192760000000     0.0240229  
H361     H      0.002160000000     0.100000000000     0.234640000000     0.0466859  
H362     H      0.456650000000     0.099980000000     0.335790000000     0.0452704  
H363     H      0.456970000000     0.155690000000     0.336010000000     0.0409219  
H364     H      0.001790000000     0.155710000000     0.234430000000     0.0407312  
H365     H      0.456780000000     0.347370000000     0.335720000000     0.0392798  
H366     H      0.001660000000     0.347390000000     0.234170000000     0.0427149  
H367     H      0.001980000000     0.403100000000     0.234390000000     0.047      
H368     H      0.456410000000     0.403070000000     0.335510000000     0.0451736  
H369     H      0.882270000000     0.251100000000     0.342040000000     0.0429752  
H370     H      0.882290000000     0.252070000000     0.228130000000     0.042802   
H371     H      0.826330000000     0.252150000000     0.228150000000     0.0429075  
H372     H      0.826300000000     0.251140000000     0.342060000000     0.0427873  
H373     H      0.576330000000     0.251010000000     0.228130000000     0.0429276  
H374     H      0.576310000000     0.252080000000     0.342040000000     0.0428389  
H375     H      0.632270000000     0.252110000000     0.342020000000     0.0429049  
H376     H      0.632300000000     0.251010000000     0.228110000000     0.0428011  
H377     H      0.001790000000     0.155720000000     0.085730000000     0.04076    
H378     H      0.456970000000     0.155680000000     0.484150000000     0.0409212  
H379     H      0.456640000000     0.099970000000     0.484380000000     0.0452456  
H380     H      0.002160000000     0.100010000000     0.085530000000     0.0466635  
H381     H      0.956780000000     0.347360000000     0.484450000000     0.0392123  
H382     H      0.501660000000     0.347400000000     0.086000000000     0.0410928  
H383     H      0.501990000000     0.403100000000     0.085770000000     0.0453584  
H384     H      0.956420000000     0.403060000000     0.484660000000     0.0451664  
H385     H      0.882270000000     0.251100000000     0.478120000000     0.042955   
H386     H      0.882290000000     0.252080000000     0.092040000000     0.0427992  
H387     H      0.826330000000     0.252160000000     0.092020000000     0.0429172  
H388     H      0.826300000000     0.251140000000     0.478110000000     0.0427934  
H389     H      0.576330000000     0.251010000000     0.092040000000     0.042912   
H390     H      0.576310000000     0.252070000000     0.478130000000     0.0428225  
H391     H      0.632270000000     0.252100000000     0.478150000000     0.042914   
H392     H      0.632290000000     0.251020000000     0.092060000000     0.0428115  
H393     H      0.514530000000     0.217460000000     0.442760000000     0.0241799  
H394     H      0.943900000000     0.285840000000     0.442750000000     0.0237542  
H395     H      0.943900000000     0.285850000000     0.377420000000     0.0237958  
H396     H      0.514530000000     0.217460000000     0.377400000000     0.0241584  
H397     H      0.944090000000     0.285640000000     0.127410000000     0.0239599  
H398     H      0.514680000000     0.217210000000     0.127410000000     0.0235268  
H399     H      0.514680000000     0.217210000000     0.192740000000     0.0235847  
H400     H      0.944090000000     0.285630000000     0.192770000000     0.0240445  
H401     H      0.783140000000     0.050730000000     0.942240000000     0.0369891  
H402     H      0.783120000000     0.452510000000     0.942200000000     0.0373353  
H403     H      0.783130000000     0.452520000000     0.877930000000     0.0374003  
H404     H      0.783140000000     0.050750000000     0.877970000000     0.0370418  
H405     H      0.675440000000     0.452560000000     0.627920000000     0.0375925  
H406     H      0.675490000000     0.050780000000     0.627970000000     0.0369266  
H407     H      0.675490000000     0.050770000000     0.692240000000     0.0369444  
H408     H      0.675440000000     0.452540000000     0.692200000000     0.0375751  
H409     H      0.532960000000     0.452250000000     0.942230000000     0.0374444  
H410     H      0.033310000000     0.050470000000     0.942210000000     0.0371995  
H411     H      0.033310000000     0.050470000000     0.877940000000     0.0371966  
H412     H      0.532960000000     0.452240000000     0.877960000000     0.0374645  
H413     H      0.425640000000     0.050820000000     0.627940000000     0.0373363  
H414     H      0.925300000000     0.452600000000     0.627950000000     0.0370405  
H415     H      0.925300000000     0.452610000000     0.692220000000     0.037042   
H416     H      0.425640000000     0.050830000000     0.692210000000     0.0373164  
H417     H      0.751630000000     0.155790000000     0.734240000000     0.0410749  
H418     H      0.707010000000     0.155800000000     0.835940000000     0.0408599  
H419     H      0.706660000000     0.100100000000     0.835720000000     0.0451058  
H420     H      0.751970000000     0.100080000000     0.734460000000     0.0452677  
H421     H      0.752150000000     0.403180000000     0.734580000000     0.0452304  
H422     H      0.706410000000     0.403190000000     0.835580000000     0.0453145  
H423     H      0.706740000000     0.347480000000     0.835800000000     0.0392841  
H424     H      0.751810000000     0.347470000000     0.734360000000     0.0391618  
H425     H      0.707020000000     0.155790000000     0.984220000000     0.0403343  
H426     H      0.751640000000     0.155790000000     0.585920000000     0.0410491  
H427     H      0.751980000000     0.100090000000     0.585700000000     0.0452765  
H428     H      0.706660000000     0.100090000000     0.984440000000     0.044582   
H429     H      0.751810000000     0.347470000000     0.585810000000     0.0391629  
H430     H      0.706740000000     0.347470000000     0.984380000000     0.0387827  
H431     H      0.706400000000     0.403180000000     0.984590000000     0.04476    
H432     H      0.752150000000     0.403180000000     0.585600000000     0.0452271  
H433     H      0.764500000000     0.217470000000     0.942760000000     0.024132   
H434     H      0.693870000000     0.285860000000     0.942750000000     0.0237843  
H435     H      0.693870000000     0.285860000000     0.877420000000     0.0237614  
H436     H      0.764510000000     0.217470000000     0.877400000000     0.0241717  
H437     H      0.694120000000     0.217440000000     0.627400000000     0.0240327  
H438     H      0.764700000000     0.285880000000     0.627430000000     0.0236375  
H439     H      0.764700000000     0.285870000000     0.692750000000     0.023671   
H440     H      0.694120000000     0.217440000000     0.692760000000     0.0240092  
H441     H      0.002160000000     0.100000000000     0.734640000000     0.0466597  
H442     H      0.456650000000     0.099980000000     0.835790000000     0.0452203  
H443     H      0.456970000000     0.155690000000     0.836010000000     0.0409109  
H444     H      0.001790000000     0.155710000000     0.734430000000     0.0407474  
H445     H      0.456780000000     0.347370000000     0.835720000000     0.039272   
H446     H      0.001660000000     0.347390000000     0.734170000000     0.0427097  
H447     H      0.001980000000     0.403100000000     0.734390000000     0.0470003  
H448     H      0.456410000000     0.403070000000     0.835510000000     0.0451398  
H449     H      0.882270000000     0.251100000000     0.842040000000     0.0429469  
H450     H      0.882300000000     0.252070000000     0.728130000000     0.0428071  
H451     H      0.826330000000     0.252150000000     0.728150000000     0.0429125  
H452     H      0.826310000000     0.251140000000     0.842060000000     0.0427657  
H453     H      0.576330000000     0.251010000000     0.728130000000     0.0429302  
H454     H      0.576310000000     0.252080000000     0.842040000000     0.0428168  
H455     H      0.632270000000     0.252110000000     0.842020000000     0.0428858  
H456     H      0.632290000000     0.251010000000     0.728110000000     0.0428015  
H457     H      0.001790000000     0.155720000000     0.585730000000     0.0407648  
H458     H      0.456970000000     0.155680000000     0.984150000000     0.0403828  
H459     H      0.456650000000     0.099970000000     0.984380000000     0.0446986  
H460     H      0.002160000000     0.100010000000     0.585530000000     0.0466619  
H461     H      0.956780000000     0.347360000000     0.984450000000     0.0386676  
H462     H      0.501660000000     0.347400000000     0.586000000000     0.0410866  
H463     H      0.501990000000     0.403100000000     0.585770000000     0.0453513  
H464     H      0.956420000000     0.403060000000     0.984660000000     0.0446302  
H465     H      0.882270000000     0.251100000000     0.978130000000     0.0424332  
H466     H      0.882300000000     0.252080000000     0.592040000000     0.0428     
H467     H      0.826330000000     0.252160000000     0.592020000000     0.0429146  
H468     H      0.826310000000     0.251140000000     0.978110000000     0.0422851  
H469     H      0.576330000000     0.251020000000     0.592040000000     0.0429132  
H470     H      0.576310000000     0.252070000000     0.978130000000     0.0422911  
H471     H      0.632270000000     0.252100000000     0.978150000000     0.0423865  
H472     H      0.632290000000     0.251020000000     0.592060000000     0.0428095  
H473     H      0.514530000000     0.217460000000     0.942760000000     0.0241028  
H474     H      0.943900000000     0.285840000000     0.942750000000     0.0237076  
H475     H      0.943900000000     0.285850000000     0.877420000000     0.0237579  
H476     H      0.514530000000     0.217460000000     0.877400000000     0.0241178  
H477     H      0.944090000000     0.285640000000     0.627410000000     0.0240381  
H478     H      0.514680000000     0.217210000000     0.627420000000     0.0235656  
H479     H      0.514680000000     0.217210000000     0.692740000000     0.0235671  
H480     H      0.944090000000     0.285640000000     0.692770000000     0.0239995  
H481     H      0.783140000000     0.550730000000     0.442240000000     0.0373075  
H482     H      0.783120000000     0.952510000000     0.442200000000     0.0373525  
H483     H      0.783130000000     0.952520000000     0.377930000000     0.0373631  
H484     H      0.783140000000     0.550750000000     0.377970000000     0.037313   
H485     H      0.675440000000     0.952560000000     0.127920000000     0.0375346  
H486     H      0.675490000000     0.550780000000     0.127970000000     0.0371944  
H487     H      0.675490000000     0.550770000000     0.192240000000     0.0371385  
H488     H      0.675440000000     0.952540000000     0.192200000000     0.03749    
H489     H      0.532960000000     0.952250000000     0.442230000000     0.0374383  
H490     H      0.033310000000     0.550470000000     0.442220000000     0.0374967  
H491     H      0.033310000000     0.550470000000     0.377940000000     0.0374862  
H492     H      0.532960000000     0.952240000000     0.377960000000     0.0374348  
H493     H      0.425640000000     0.550820000000     0.127940000000     0.0375861  
H494     H      0.925300000000     0.952600000000     0.127950000000     0.036985   
H495     H      0.925300000000     0.952610000000     0.192220000000     0.0369614  
H496     H      0.425640000000     0.550830000000     0.192210000000     0.0375405  
H497     H      0.751630000000     0.655790000000     0.234240000000     0.0410647  
H498     H      0.707010000000     0.655800000000     0.335930000000     0.0408814  
H499     H      0.706660000000     0.600090000000     0.335720000000     0.0451568  
H500     H      0.751970000000     0.600080000000     0.234460000000     0.0452886  
H501     H      0.752160000000     0.903180000000     0.234580000000     0.0457403  
H502     H      0.706410000000     0.903190000000     0.335590000000     0.0458301  
H503     H      0.706740000000     0.847480000000     0.335800000000     0.0394007  
H504     H      0.751810000000     0.847470000000     0.234360000000     0.0392431  
H505     H      0.707020000000     0.655790000000     0.484230000000     0.0408804  
H506     H      0.751640000000     0.655800000000     0.085920000000     0.0410616  
H507     H      0.751980000000     0.600090000000     0.085700000000     0.0452887  
H508     H      0.706660000000     0.600090000000     0.484440000000     0.0451742  
H509     H      0.751810000000     0.847480000000     0.085810000000     0.0392467  
H510     H      0.706740000000     0.847470000000     0.484380000000     0.0393945  
H511     H      0.706400000000     0.903180000000     0.484590000000     0.0458607  
H512     H      0.752150000000     0.903180000000     0.085600000000     0.045757   
H513     H      0.764500000000     0.717470000000     0.442760000000     0.0241865  
H514     H      0.693880000000     0.785860000000     0.442750000000     0.0238614  
H515     H      0.693880000000     0.785860000000     0.377420000000     0.0238836  
H516     H      0.764500000000     0.717470000000     0.377400000000     0.0241854  
H517     H      0.694120000000     0.717440000000     0.127400000000     0.0240052  
H518     H      0.764700000000     0.785880000000     0.127420000000     0.0236805  
H519     H      0.764700000000     0.785870000000     0.192750000000     0.0237109  
H520     H      0.694120000000     0.717440000000     0.192760000000     0.0239977  
H521     H      0.002160000000     0.600000000000     0.234640000000     0.046724   
H522     H      0.456650000000     0.599980000000     0.335790000000     0.0452938  
H523     H      0.456970000000     0.655690000000     0.336010000000     0.0409229  
H524     H      0.001790000000     0.655710000000     0.234430000000     0.0407391  
H525     H      0.456780000000     0.847370000000     0.335720000000     0.0393497  
H526     H      0.001660000000     0.847390000000     0.234170000000     0.0427876  
H527     H      0.001980000000     0.903100000000     0.234390000000     0.047555   
H528     H      0.456410000000     0.903070000000     0.335510000000     0.0457194  
H529     H      0.882270000000     0.751100000000     0.342040000000     0.0429793  
H530     H      0.882290000000     0.752080000000     0.228130000000     0.0428122  
H531     H      0.826330000000     0.752150000000     0.228150000000     0.0429169  
H532     H      0.826310000000     0.751140000000     0.342060000000     0.0427982  
H533     H      0.576330000000     0.751010000000     0.228130000000     0.0429538  
H534     H      0.576310000000     0.752080000000     0.342040000000     0.0428668  
H535     H      0.632270000000     0.752110000000     0.342020000000     0.0429077  
H536     H      0.632290000000     0.751010000000     0.228110000000     0.0428055  
H537     H      0.001790000000     0.655720000000     0.085730000000     0.040776   
H538     H      0.456970000000     0.655680000000     0.484150000000     0.0409203  
H539     H      0.456650000000     0.599970000000     0.484380000000     0.045288   
H540     H      0.002160000000     0.600010000000     0.085530000000     0.0467058  
H541     H      0.956780000000     0.847360000000     0.484450000000     0.0392751  
H542     H      0.501660000000     0.847400000000     0.086000000000     0.041161   
H543     H      0.501990000000     0.903110000000     0.085770000000     0.0459208  
H544     H      0.956420000000     0.903060000000     0.484660000000     0.0457271  
H545     H      0.882270000000     0.751100000000     0.478120000000     0.0429634  
H546     H      0.882290000000     0.752080000000     0.092040000000     0.0428075  
H547     H      0.826330000000     0.752160000000     0.092020000000     0.042925   
H548     H      0.826300000000     0.751140000000     0.478110000000     0.0428069  
H549     H      0.576330000000     0.751020000000     0.092040000000     0.042927   
H550     H      0.576310000000     0.752070000000     0.478130000000     0.0428368  
H551     H      0.632270000000     0.752110000000     0.478150000000     0.0429238  
H552     H      0.632290000000     0.751020000000     0.092060000000     0.0428244  
H553     H      0.514530000000     0.717460000000     0.442760000000     0.0241648  
H554     H      0.943900000000     0.785840000000     0.442750000000     0.0238076  
H555     H      0.943900000000     0.785850000000     0.377420000000     0.0238419  
H556     H      0.514530000000     0.717460000000     0.377400000000     0.0241553  
H557     H      0.944090000000     0.785640000000     0.127410000000     0.0240615  
H558     H      0.514680000000     0.717210000000     0.127410000000     0.0235308  
H559     H      0.514680000000     0.717210000000     0.192740000000     0.0235727  
H560     H      0.944090000000     0.785640000000     0.192770000000     0.024068   
H561     H      0.783140000000     0.550730000000     0.942240000000     0.0372233  
H562     H      0.783120000000     0.952510000000     0.942200000000     0.0372623  
H563     H      0.783130000000     0.952520000000     0.877930000000     0.0373337  
H564     H      0.783140000000     0.550740000000     0.877970000000     0.0372954  
H565     H      0.675440000000     0.952560000000     0.627920000000     0.0374928  
H566     H      0.675490000000     0.550780000000     0.627970000000     0.037163   
H567     H      0.675480000000     0.550770000000     0.692240000000     0.0371665  
H568     H      0.675440000000     0.952540000000     0.692200000000     0.0375168  
H569     H      0.532960000000     0.952250000000     0.942230000000     0.0373233  
H570     H      0.033310000000     0.550470000000     0.942210000000     0.0374281  
H571     H      0.033310000000     0.550460000000     0.877940000000     0.0374469  
H572     H      0.532960000000     0.952240000000     0.877960000000     0.0374084  
H573     H      0.425640000000     0.550820000000     0.627940000000     0.0375731  
H574     H      0.925300000000     0.952600000000     0.627950000000     0.0369721  
H575     H      0.925300000000     0.952610000000     0.692220000000     0.0369577  
H576     H      0.425640000000     0.550830000000     0.692210000000     0.0375402  
H577     H      0.751630000000     0.655790000000     0.734240000000     0.0410759  
H578     H      0.707010000000     0.655800000000     0.835940000000     0.0408699  
H579     H      0.706660000000     0.600100000000     0.835720000000     0.0451372  
H580     H      0.751970000000     0.600080000000     0.734460000000     0.0452979  
H581     H      0.752160000000     0.903180000000     0.734580000000     0.0457767  
H582     H      0.706410000000     0.903190000000     0.835580000000     0.0458761  
H583     H      0.706740000000     0.847480000000     0.835800000000     0.0393579  
H584     H      0.751810000000     0.847470000000     0.734360000000     0.0392299  
H585     H      0.707020000000     0.655790000000     0.984220000000     0.0403389  
H586     H      0.751630000000     0.655790000000     0.585920000000     0.0410542  
H587     H      0.751980000000     0.600090000000     0.585700000000     0.045312   
H588     H      0.706660000000     0.600090000000     0.984440000000     0.0446048  
H589     H      0.751810000000     0.847480000000     0.585810000000     0.0392384  
H590     H      0.706740000000     0.847470000000     0.984380000000     0.0388572  
H591     H      0.706400000000     0.903180000000     0.984590000000     0.0453096  
H592     H      0.752150000000     0.903180000000     0.585600000000     0.0457617  
H593     H      0.764510000000     0.717470000000     0.942760000000     0.0241374  
H594     H      0.693880000000     0.785860000000     0.942750000000     0.0238234  
H595     H      0.693880000000     0.785860000000     0.877420000000     0.0238378  
H596     H      0.764510000000     0.717470000000     0.877400000000     0.0241618  
H597     H      0.694120000000     0.717440000000     0.627400000000     0.0240207  
H598     H      0.764700000000     0.785880000000     0.627430000000     0.0236934  
H599     H      0.764700000000     0.785880000000     0.692750000000     0.023717   
H600     H      0.694120000000     0.717440000000     0.692760000000     0.0239956  
H601     H      0.002160000000     0.600000000000     0.734640000000     0.046713   
H602     H      0.456650000000     0.599980000000     0.835790000000     0.0452559  
H603     H      0.456970000000     0.655690000000     0.836010000000     0.0409051  
H604     H      0.001790000000     0.655710000000     0.734430000000     0.0407455  
H605     H      0.456780000000     0.847370000000     0.835720000000     0.0393317  
H606     H      0.001660000000     0.847390000000     0.734170000000     0.0428005  
H607     H      0.001980000000     0.903100000000     0.734390000000     0.0475561  
H608     H      0.456410000000     0.903070000000     0.835510000000     0.0456952  
H609     H      0.882270000000     0.751100000000     0.842040000000     0.0429606  
H610     H      0.882290000000     0.752080000000     0.728130000000     0.0428116  
H611     H      0.826330000000     0.752150000000     0.728150000000     0.0429195  
H612     H      0.826300000000     0.751140000000     0.842060000000     0.04278    
H613     H      0.576330000000     0.751010000000     0.728130000000     0.0429445  
H614     H      0.576310000000     0.752080000000     0.842040000000     0.0428303  
H615     H      0.632270000000     0.752110000000     0.842020000000     0.0428968  
H616     H      0.632290000000     0.751010000000     0.728110000000     0.0428151  
H617     H      0.001790000000     0.655720000000     0.585730000000     0.0407539  
H618     H      0.456970000000     0.655680000000     0.984150000000     0.0403798  
H619     H      0.456640000000     0.599970000000     0.984380000000     0.0447278  
H620     H      0.002160000000     0.600010000000     0.585530000000     0.0467083  
H621     H      0.956790000000     0.847360000000     0.984450000000     0.0387564  
H622     H      0.501660000000     0.847400000000     0.586000000000     0.0411609  
H623     H      0.501990000000     0.903110000000     0.585770000000     0.0459074  
H624     H      0.956420000000     0.903060000000     0.984660000000     0.0451558  
H625     H      0.882270000000     0.751100000000     0.978130000000     0.0424369  
H626     H      0.882290000000     0.752090000000     0.592040000000     0.0428076  
H627     H      0.826330000000     0.752160000000     0.592020000000     0.042922   
H628     H      0.826300000000     0.751140000000     0.978110000000     0.0422973  
H629     H      0.576330000000     0.751010000000     0.592040000000     0.0429259  
H630     H      0.576310000000     0.752070000000     0.978130000000     0.042304   
H631     H      0.632270000000     0.752100000000     0.978150000000     0.0423961  
H632     H      0.632290000000     0.751020000000     0.592060000000     0.0428244  
H633     H      0.514530000000     0.717460000000     0.942760000000     0.0241237  
H634     H      0.943900000000     0.785840000000     0.942750000000     0.0237705  
H635     H      0.943900000000     0.785850000000     0.877420000000     0.023781   
H636     H      0.514530000000     0.717460000000     0.877400000000     0.0241049  
H637     H      0.944090000000     0.785640000000     0.627410000000     0.0240724  
H638     H      0.514680000000     0.717210000000     0.627420000000     0.0235395  
H639     H      0.514680000000     0.717210000000     0.692740000000     0.0235633  
H640     H      0.944090000000     0.785640000000     0.692770000000     0.0240461  
O1       O      0.480430000000     0.295130000000     0.064350000000    -0.463581   
O2       O      0.980380000000     0.207900000000     0.064160000000    -0.463899   
O3       O      0.023430000000     0.251560000000     0.064330000000    -0.462667   
O4       O      0.435420000000     0.251500000000     0.064170000000    -0.46384    
O5       O      0.435170000000     0.251490000000     0.505830000000    -0.464014   
O6       O      0.023180000000     0.251630000000     0.506000000000    -0.462554   
O7       O      0.978210000000     0.207940000000     0.505820000000    -0.463665   
O8       O      0.478190000000     0.295180000000     0.506010000000    -0.463582   
O9       O      0.478190000000     0.295180000000     0.314160000000    -0.463734   
O10      O      0.978210000000     0.207940000000     0.314350000000    -0.463499   
O11      O      0.023180000000     0.251640000000     0.314170000000    -0.462489   
O12      O      0.435180000000     0.251490000000     0.314340000000    -0.463995   
O13      O      0.435420000000     0.251490000000     0.256000000000    -0.463852   
O14      O      0.023430000000     0.251560000000     0.255830000000    -0.462494   
O15      O      0.980380000000     0.207890000000     0.256010000000    -0.46387    
O16      O      0.480420000000     0.295130000000     0.255820000000    -0.46362    
O17      O      0.230350000000     0.295260000000     0.064260000000    -0.463638   
O18      O      0.230450000000     0.208020000000     0.064250000000    -0.463576   
O19      O      0.273430000000     0.251600000000     0.064320000000    -0.463884   
O20      O      0.185420000000     0.251660000000     0.064190000000    -0.463778   
O21      O      0.185170000000     0.251560000000     0.505850000000    -0.464004   
O22      O      0.273180000000     0.251700000000     0.505980000000    -0.463942   
O23      O      0.228180000000     0.208030000000     0.505910000000    -0.463544   
O24      O      0.228220000000     0.295260000000     0.505920000000    -0.463866   
O25      O      0.228220000000     0.295270000000     0.314250000000    -0.463755   
O26      O      0.228180000000     0.208030000000     0.314250000000    -0.463548   
O27      O      0.273180000000     0.251700000000     0.314190000000    -0.463838   
O28      O      0.185170000000     0.251570000000     0.314320000000    -0.463902   
O29      O      0.185420000000     0.251660000000     0.255980000000    -0.463902   
O30      O      0.273430000000     0.251590000000     0.255850000000    -0.464006   
O31      O      0.230450000000     0.208020000000     0.255910000000    -0.463576   
O32      O      0.230350000000     0.295260000000     0.255910000000    -0.463728   
O33      O      0.000170000000     0.455330000000     0.552290000000    -0.380562   
O34      O      0.000280000000     0.047740000000     0.052140000000    -0.380178   
O35      O      0.972950000000     0.001620000000     0.094640000000    -0.388796   
O36      O      0.028040000000     0.501450000000     0.509130000000    -0.382943   
O37      O      0.485650000000     0.501450000000     0.475530000000    -0.386695   
O38      O      0.430570000000     0.001630000000     0.061030000000    -0.38328    
O39      O      0.458430000000     0.047740000000     0.017880000000    -0.381655   
O40      O      0.458330000000     0.455340000000     0.518020000000    -0.382455   
O41      O      0.000160000000     0.455330000000     0.267870000000    -0.380622   
O42      O      0.000290000000     0.047730000000     0.268030000000    -0.380252   
O43      O      0.028040000000     0.001440000000     0.311030000000    -0.383846   
O44      O      0.972950000000     0.501620000000     0.225530000000    -0.388033   
O45      O      0.430570000000     0.501630000000     0.259130000000    -0.38242    
O46      O      0.485660000000     0.001450000000     0.344640000000    -0.387506   
O47      O      0.458440000000     0.047750000000     0.302300000000    -0.381591   
O48      O      0.458320000000     0.455340000000     0.302140000000    -0.382368   
O49      O      0.250210000000     0.455430000000     0.552220000000    -0.38225    
O50      O      0.250230000000     0.047840000000     0.052210000000    -0.381828   
O51      O      0.222950000000     0.001650000000     0.094640000000    -0.387584   
O52      O      0.278030000000     0.501620000000     0.509130000000    -0.382493   
O53      O      0.235650000000     0.501620000000     0.475530000000    -0.386708   
O54      O      0.180570000000     0.001660000000     0.061040000000    -0.383373   
O55      O      0.208390000000     0.047840000000     0.017940000000    -0.381802   
O56      O      0.208360000000     0.455440000000     0.517960000000    -0.382273   
O57      O      0.250230000000     0.047840000000     0.267950000000    -0.381814   
O58      O      0.250210000000     0.455430000000     0.267960000000    -0.382534   
O59      O      0.222940000000     0.501640000000     0.225530000000    -0.386744   
O60      O      0.278030000000     0.001630000000     0.311030000000    -0.383258   
O61      O      0.235660000000     0.001640000000     0.344640000000    -0.387666   
O62      O      0.180560000000     0.501650000000     0.259140000000    -0.382325   
O63      O      0.208370000000     0.455440000000     0.302210000000    -0.38227    
O64      O      0.208390000000     0.047850000000     0.302220000000    -0.381934   
O65      O      0.480430000000     0.295130000000     0.564350000000    -0.463596   
O66      O      0.980380000000     0.207900000000     0.564160000000    -0.463919   
O67      O      0.023430000000     0.251560000000     0.564330000000    -0.462675   
O68      O      0.435420000000     0.251500000000     0.564170000000    -0.463854   
O69      O      0.435170000000     0.251490000000     0.005830000000    -0.463339   
O70      O      0.023180000000     0.251630000000     0.006000000000    -0.461891   
O71      O      0.978210000000     0.207940000000     0.005820000000    -0.462994   
O72      O      0.478190000000     0.295180000000     0.006010000000    -0.46292    
O73      O      0.478190000000     0.295180000000     0.814160000000    -0.463718   
O74      O      0.978210000000     0.207940000000     0.814350000000    -0.463525   
O75      O      0.023180000000     0.251640000000     0.814170000000    -0.462453   
O76      O      0.435170000000     0.251490000000     0.814340000000    -0.46393    
O77      O      0.435420000000     0.251490000000     0.756000000000    -0.463913   
O78      O      0.023430000000     0.251560000000     0.755830000000    -0.462626   
O79      O      0.980380000000     0.207890000000     0.756010000000    -0.463894   
O80      O      0.480420000000     0.295130000000     0.755820000000    -0.463631   
O81      O      0.230350000000     0.295260000000     0.564260000000    -0.463672   
O82      O      0.230450000000     0.208020000000     0.564250000000    -0.463583   
O83      O      0.273430000000     0.251590000000     0.564320000000    -0.463903   
O84      O      0.185420000000     0.251660000000     0.564190000000    -0.463802   
O85      O      0.185170000000     0.251560000000     0.005850000000    -0.463321   
O86      O      0.273180000000     0.251700000000     0.005980000000    -0.463271   
O87      O      0.228180000000     0.208030000000     0.005910000000    -0.462872   
O88      O      0.228220000000     0.295260000000     0.005920000000    -0.463189   
O89      O      0.228220000000     0.295260000000     0.814250000000    -0.463845   
O90      O      0.228180000000     0.208030000000     0.814260000000    -0.463444   
O91      O      0.273180000000     0.251700000000     0.814190000000    -0.463935   
O92      O      0.185170000000     0.251570000000     0.814320000000    -0.463935   
O93      O      0.185420000000     0.251660000000     0.755980000000    -0.463894   
O94      O      0.273430000000     0.251590000000     0.755850000000    -0.463883   
O95      O      0.230450000000     0.208020000000     0.755910000000    -0.463502   
O96      O      0.230350000000     0.295260000000     0.755910000000    -0.463696   
O97      O      0.000170000000     0.455330000000     0.052290000000    -0.380524   
O98      O      0.000280000000     0.047740000000     0.552140000000    -0.38021    
O99      O      0.972950000000     0.001620000000     0.594640000000    -0.388839   
O100     O      0.028040000000     0.501450000000     0.009130000000    -0.38227    
O101     O      0.485650000000     0.501450000000     0.975530000000    -0.386908   
O102     O      0.430570000000     0.001630000000     0.561040000000    -0.383254   
O103     O      0.458430000000     0.047740000000     0.517880000000    -0.381748   
O104     O      0.458320000000     0.455340000000     0.018020000000    -0.382239   
O105     O      0.000160000000     0.455330000000     0.767870000000    -0.380626   
O106     O      0.000280000000     0.047730000000     0.768030000000    -0.380427   
O107     O      0.028040000000     0.001440000000     0.811030000000    -0.383761   
O108     O      0.972950000000     0.501620000000     0.725530000000    -0.388014   
O109     O      0.430570000000     0.501630000000     0.759130000000    -0.382417   
O110     O      0.485660000000     0.001450000000     0.844640000000    -0.38764    
O111     O      0.458440000000     0.047750000000     0.802290000000    -0.381696   
O112     O      0.458320000000     0.455340000000     0.802140000000    -0.382433   
O113     O      0.250210000000     0.455430000000     0.052220000000    -0.382218   
O114     O      0.250230000000     0.047840000000     0.552220000000    -0.381722   
O115     O      0.222950000000     0.001650000000     0.594640000000    -0.387599   
O116     O      0.278030000000     0.501630000000     0.009130000000    -0.381816   
O117     O      0.235650000000     0.501620000000     0.975530000000    -0.386849   
O118     O      0.180570000000     0.001660000000     0.561040000000    -0.383278   
O119     O      0.208390000000     0.047840000000     0.517940000000    -0.3819     
O120     O      0.208360000000     0.455440000000     0.017960000000    -0.382165   
O121     O      0.250230000000     0.047840000000     0.767950000000    -0.381753   
O122     O      0.250220000000     0.455430000000     0.767950000000    -0.382294   
O123     O      0.222940000000     0.501630000000     0.725530000000    -0.386685   
O124     O      0.278030000000     0.001630000000     0.811030000000    -0.383246   
O125     O      0.235650000000     0.001640000000     0.844640000000    -0.387513   
O126     O      0.180560000000     0.501650000000     0.759140000000    -0.38229    
O127     O      0.208370000000     0.455440000000     0.802210000000    -0.382171   
O128     O      0.208390000000     0.047850000000     0.802220000000    -0.381972   
O129     O      0.480430000000     0.795130000000     0.064350000000    -0.463564   
O130     O      0.980380000000     0.707900000000     0.064160000000    -0.463915   
O131     O      0.023430000000     0.751560000000     0.064330000000    -0.462648   
O132     O      0.435420000000     0.751500000000     0.064170000000    -0.463834   
O133     O      0.435170000000     0.751480000000     0.505830000000    -0.464015   
O134     O      0.023180000000     0.751630000000     0.506000000000    -0.462539   
O135     O      0.978210000000     0.707940000000     0.505820000000    -0.463675   
O136     O      0.478190000000     0.795180000000     0.506010000000    -0.463575   
O137     O      0.478190000000     0.795180000000     0.314160000000    -0.463686   
O138     O      0.978210000000     0.707940000000     0.314350000000    -0.463531   
O139     O      0.023180000000     0.751640000000     0.314170000000    -0.46266    
O140     O      0.435170000000     0.751490000000     0.314340000000    -0.463925   
O141     O      0.435420000000     0.751490000000     0.256000000000    -0.463901   
O142     O      0.023430000000     0.751560000000     0.255830000000    -0.462522   
O143     O      0.980380000000     0.707890000000     0.256010000000    -0.463893   
O144     O      0.480430000000     0.795130000000     0.255820000000    -0.463579   
O145     O      0.230350000000     0.795260000000     0.064260000000    -0.463615   
O146     O      0.230450000000     0.708020000000     0.064250000000    -0.463593   
O147     O      0.273430000000     0.751600000000     0.064320000000    -0.463885   
O148     O      0.185420000000     0.751660000000     0.064190000000    -0.463771   
O149     O      0.185170000000     0.751560000000     0.505850000000    -0.46398    
O150     O      0.273180000000     0.751700000000     0.505980000000    -0.463912   
O151     O      0.228180000000     0.708020000000     0.505910000000    -0.463486   
O152     O      0.228220000000     0.795260000000     0.505920000000    -0.463803   
O153     O      0.228220000000     0.795270000000     0.314250000000    -0.463734   
O154     O      0.228180000000     0.708030000000     0.314250000000    -0.46356    
O155     O      0.273180000000     0.751700000000     0.314190000000    -0.463832   
O156     O      0.185170000000     0.751570000000     0.314320000000    -0.4639     
O157     O      0.185420000000     0.751660000000     0.255980000000    -0.463895   
O158     O      0.273430000000     0.751590000000     0.255850000000    -0.464006   
O159     O      0.230450000000     0.708020000000     0.255910000000    -0.463585   
O160     O      0.230350000000     0.795260000000     0.255910000000    -0.463712   
O161     O      0.000170000000     0.955330000000     0.552290000000    -0.377287   
O162     O      0.000280000000     0.547740000000     0.052140000000    -0.380713   
O163     O      0.972950000000     0.501620000000     0.094640000000    -0.38787    
O164     O      0.028040000000     0.001450000000     0.509130000000    -0.383759   
O165     O      0.485660000000     0.001450000000     0.475530000000    -0.387775   
O166     O      0.430570000000     0.501630000000     0.061030000000    -0.382394   
O167     O      0.458430000000     0.547740000000     0.017880000000    -0.382203   
O168     O      0.458320000000     0.955340000000     0.518020000000    -0.379061   
O169     O      0.000160000000     0.955330000000     0.267870000000    -0.377347   
O170     O      0.000290000000     0.547730000000     0.268030000000    -0.380778   
O171     O      0.028040000000     0.501440000000     0.311030000000    -0.382972   
O172     O      0.972950000000     0.001620000000     0.225530000000    -0.388946   
O173     O      0.430570000000     0.001630000000     0.259130000000    -0.383318   
O174     O      0.485660000000     0.501450000000     0.344640000000    -0.3867     
O175     O      0.458440000000     0.547740000000     0.302300000000    -0.382187   
O176     O      0.458320000000     0.955340000000     0.302140000000    -0.379148   
O177     O      0.250210000000     0.955440000000     0.552220000000    -0.379006   
O178     O      0.250230000000     0.547840000000     0.052210000000    -0.382354   
O179     O      0.222950000000     0.501650000000     0.094640000000    -0.38667    
O180     O      0.278030000000     0.001630000000     0.509130000000    -0.383325   
O181     O      0.235650000000     0.001620000000     0.475530000000    -0.387623   
O182     O      0.180570000000     0.501660000000     0.061040000000    -0.382472   
O183     O      0.208390000000     0.547840000000     0.017940000000    -0.382351   
O184     O      0.208360000000     0.955440000000     0.517960000000    -0.378965   
O185     O      0.250230000000     0.547840000000     0.267950000000    -0.38238    
O186     O      0.250220000000     0.955430000000     0.267960000000    -0.379125   
O187     O      0.222940000000     0.001630000000     0.225530000000    -0.387722   
O188     O      0.278030000000     0.501630000000     0.311030000000    -0.382355   
O189     O      0.235650000000     0.501640000000     0.344640000000    -0.386567   
O190     O      0.180560000000     0.001650000000     0.259140000000    -0.383152   
O191     O      0.208370000000     0.955440000000     0.302210000000    -0.378942   
O192     O      0.208390000000     0.547850000000     0.302220000000    -0.382506   
O193     O      0.480430000000     0.795130000000     0.564350000000    -0.463578   
O194     O      0.980380000000     0.707900000000     0.564160000000    -0.463935   
O195     O      0.023430000000     0.751560000000     0.564330000000    -0.462666   
O196     O      0.435420000000     0.751500000000     0.564170000000    -0.463862   
O197     O      0.435170000000     0.751480000000     0.005830000000    -0.463331   
O198     O      0.023180000000     0.751630000000     0.006000000000    -0.461906   
O199     O      0.978210000000     0.707940000000     0.005820000000    -0.463024   
O200     O      0.478190000000     0.795180000000     0.006010000000    -0.462908   
O201     O      0.478190000000     0.795180000000     0.814160000000    -0.463698   
O202     O      0.978210000000     0.707940000000     0.814350000000    -0.463523   
O203     O      0.023180000000     0.751640000000     0.814170000000    -0.462395   
O204     O      0.435170000000     0.751490000000     0.814340000000    -0.463926   
O205     O      0.435420000000     0.751490000000     0.756000000000    -0.463911   
O206     O      0.023430000000     0.751560000000     0.755830000000    -0.46259    
O207     O      0.980380000000     0.707890000000     0.756010000000    -0.463911   
O208     O      0.480420000000     0.795130000000     0.755820000000    -0.463617   
O209     O      0.230350000000     0.795260000000     0.564260000000    -0.463631   
O210     O      0.230450000000     0.708020000000     0.564250000000    -0.463645   
O211     O      0.273430000000     0.751600000000     0.564320000000    -0.463906   
O212     O      0.185420000000     0.751660000000     0.564190000000    -0.463794   
O213     O      0.185170000000     0.751560000000     0.005850000000    -0.463328   
O214     O      0.273180000000     0.751700000000     0.005980000000    -0.463265   
O215     O      0.228180000000     0.708030000000     0.005910000000    -0.462893   
O216     O      0.228220000000     0.795260000000     0.005920000000    -0.463172   
O217     O      0.228220000000     0.795270000000     0.814250000000    -0.463743   
O218     O      0.228180000000     0.708030000000     0.814260000000    -0.463418   
O219     O      0.273180000000     0.751700000000     0.814190000000    -0.463923   
O220     O      0.185170000000     0.751570000000     0.814320000000    -0.463907   
O221     O      0.185420000000     0.751660000000     0.755980000000    -0.463887   
O222     O      0.273430000000     0.751590000000     0.755850000000    -0.463908   
O223     O      0.230450000000     0.708020000000     0.755910000000    -0.463514   
O224     O      0.230350000000     0.795260000000     0.755910000000    -0.463707   
O225     O      0.000170000000     0.955330000000     0.052290000000    -0.37726    
O226     O      0.000280000000     0.547740000000     0.552140000000    -0.380745   
O227     O      0.972950000000     0.501620000000     0.594640000000    -0.387921   
O228     O      0.028040000000     0.001450000000     0.009130000000    -0.383167   
O229     O      0.485660000000     0.001450000000     0.975530000000    -0.387929   
O230     O      0.430570000000     0.501630000000     0.561040000000    -0.382369   
O231     O      0.458430000000     0.547740000000     0.517880000000    -0.3823     
O232     O      0.458320000000     0.955340000000     0.018020000000    -0.378965   
O233     O      0.000160000000     0.955330000000     0.767870000000    -0.377354   
O234     O      0.000280000000     0.547730000000     0.768030000000    -0.380939   
O235     O      0.028040000000     0.501440000000     0.811030000000    -0.38287    
O236     O      0.972950000000     0.001620000000     0.725530000000    -0.388947   
O237     O      0.430570000000     0.001630000000     0.759130000000    -0.3833     
O238     O      0.485660000000     0.501450000000     0.844640000000    -0.386705   
O239     O      0.458440000000     0.547750000000     0.802290000000    -0.38227    
O240     O      0.458320000000     0.955340000000     0.802140000000    -0.379161   
O241     O      0.250210000000     0.955440000000     0.052220000000    -0.378998   
O242     O      0.250230000000     0.547840000000     0.552220000000    -0.382274   
O243     O      0.222950000000     0.501650000000     0.594640000000    -0.386616   
O244     O      0.278030000000     0.001630000000     0.009130000000    -0.382799   
O245     O      0.235650000000     0.001620000000     0.975530000000    -0.387807   
O246     O      0.180570000000     0.501660000000     0.561040000000    -0.382394   
O247     O      0.208390000000     0.547840000000     0.517940000000    -0.382458   
O248     O      0.208360000000     0.955440000000     0.017960000000    -0.378879   
O249     O      0.250230000000     0.547840000000     0.767950000000    -0.382289   
O250     O      0.250210000000     0.955430000000     0.767950000000    -0.379232   
O251     O      0.222940000000     0.001630000000     0.725530000000    -0.387624   
O252     O      0.278030000000     0.501630000000     0.811030000000    -0.38234    
O253     O      0.235650000000     0.501640000000     0.844640000000    -0.386568   
O254     O      0.180560000000     0.001650000000     0.759140000000    -0.383189   
O255     O      0.208370000000     0.955440000000     0.802210000000    -0.379038   
O256     O      0.208390000000     0.547850000000     0.802220000000    -0.382509   
O257     O      0.980430000000     0.295130000000     0.064350000000    -0.463682   
O258     O      0.480380000000     0.207900000000     0.064160000000    -0.463736   
O259     O      0.523430000000     0.251560000000     0.064330000000    -0.46404    
O260     O      0.935420000000     0.251500000000     0.064170000000    -0.463479   
O261     O      0.935170000000     0.251490000000     0.505830000000    -0.463646   
O262     O      0.523180000000     0.251630000000     0.506000000000    -0.463963   
O263     O      0.478210000000     0.207940000000     0.505820000000    -0.463653   
O264     O      0.978190000000     0.295180000000     0.506010000000    -0.463525   
O265     O      0.978190000000     0.295180000000     0.314160000000    -0.463649   
O266     O      0.478210000000     0.207940000000     0.314350000000    -0.463507   
O267     O      0.523180000000     0.251640000000     0.314170000000    -0.463946   
O268     O      0.935170000000     0.251490000000     0.314340000000    -0.46356    
O269     O      0.935420000000     0.251490000000     0.256000000000    -0.463542   
O270     O      0.523430000000     0.251560000000     0.255830000000    -0.463894   
O271     O      0.480380000000     0.207890000000     0.256010000000    -0.463709   
O272     O      0.980430000000     0.295130000000     0.255820000000    -0.463697   
O273     O      0.730350000000     0.295260000000     0.064260000000    -0.463642   
O274     O      0.730450000000     0.208020000000     0.064250000000    -0.463575   
O275     O      0.773430000000     0.251600000000     0.064320000000    -0.463878   
O276     O      0.685420000000     0.251660000000     0.064190000000    -0.463786   
O277     O      0.685170000000     0.251560000000     0.505850000000    -0.464013   
O278     O      0.773180000000     0.251700000000     0.505980000000    -0.463936   
O279     O      0.728180000000     0.208030000000     0.505910000000    -0.463543   
O280     O      0.728220000000     0.295260000000     0.505920000000    -0.463865   
O281     O      0.728220000000     0.295270000000     0.314250000000    -0.463754   
O282     O      0.728180000000     0.208030000000     0.314250000000    -0.463548   
O283     O      0.773180000000     0.251700000000     0.314190000000    -0.463832   
O284     O      0.685170000000     0.251570000000     0.314320000000    -0.463911   
O285     O      0.685420000000     0.251660000000     0.255980000000    -0.463913   
O286     O      0.773430000000     0.251590000000     0.255850000000    -0.464001   
O287     O      0.730450000000     0.208020000000     0.255910000000    -0.463575   
O288     O      0.730350000000     0.295260000000     0.255910000000    -0.463734   
O289     O      0.500170000000     0.455330000000     0.552290000000    -0.382242   
O290     O      0.500280000000     0.047740000000     0.052140000000    -0.381799   
O291     O      0.472950000000     0.001620000000     0.094640000000    -0.387487   
O292     O      0.528040000000     0.501450000000     0.509130000000    -0.382306   
O293     O      0.985660000000     0.501450000000     0.475530000000    -0.388441   
O294     O      0.930570000000     0.001630000000     0.061030000000    -0.383282   
O295     O      0.958430000000     0.047740000000     0.017880000000    -0.381162   
O296     O      0.958320000000     0.455340000000     0.518020000000    -0.381824   
O297     O      0.500160000000     0.455330000000     0.267870000000    -0.382324   
O298     O      0.500290000000     0.047730000000     0.268030000000    -0.381874   
O299     O      0.528040000000     0.001440000000     0.311030000000    -0.383306   
O300     O      0.472950000000     0.501620000000     0.225530000000    -0.386696   
O301     O      0.930570000000     0.501630000000     0.259130000000    -0.382429   
O302     O      0.985660000000     0.001450000000     0.344640000000    -0.389253   
O303     O      0.958440000000     0.047750000000     0.302300000000    -0.381097   
O304     O      0.958320000000     0.455340000000     0.302140000000    -0.381932   
O305     O      0.750210000000     0.455430000000     0.552220000000    -0.382223   
O306     O      0.750230000000     0.047840000000     0.052210000000    -0.381822   
O307     O      0.722950000000     0.001650000000     0.094640000000    -0.387539   
O308     O      0.778030000000     0.501620000000     0.509130000000    -0.382404   
O309     O      0.735650000000     0.501620000000     0.475530000000    -0.386668   
O310     O      0.680560000000     0.001660000000     0.061040000000    -0.383249   
O311     O      0.708390000000     0.047840000000     0.017940000000    -0.381805   
O312     O      0.708360000000     0.455440000000     0.517960000000    -0.382263   
O313     O      0.750230000000     0.047840000000     0.267950000000    -0.381825   
O314     O      0.750220000000     0.455430000000     0.267960000000    -0.382386   
O315     O      0.722940000000     0.501640000000     0.225530000000    -0.38678    
O316     O      0.778030000000     0.001630000000     0.311030000000    -0.38326    
O317     O      0.735650000000     0.001640000000     0.344640000000    -0.387601   
O318     O      0.680560000000     0.501650000000     0.259140000000    -0.38235    
O319     O      0.708370000000     0.455440000000     0.302210000000    -0.382221   
O320     O      0.708390000000     0.047850000000     0.302220000000    -0.381973   
O321     O      0.980430000000     0.295130000000     0.564350000000    -0.46369    
O322     O      0.480380000000     0.207900000000     0.564160000000    -0.463759   
O323     O      0.523430000000     0.251560000000     0.564330000000    -0.46406    
O324     O      0.935420000000     0.251500000000     0.564170000000    -0.463506   
O325     O      0.935170000000     0.251490000000     0.005830000000    -0.462969   
O326     O      0.523180000000     0.251630000000     0.006000000000    -0.463298   
O327     O      0.478210000000     0.207940000000     0.005820000000    -0.462979   
O328     O      0.978190000000     0.295180000000     0.006010000000    -0.462865   
O329     O      0.978190000000     0.295180000000     0.814160000000    -0.463681   
O330     O      0.478210000000     0.207940000000     0.814350000000    -0.463491   
O331     O      0.523180000000     0.251640000000     0.814170000000    -0.463826   
O332     O      0.935180000000     0.251490000000     0.814340000000    -0.463634   
O333     O      0.935420000000     0.251490000000     0.756000000000    -0.463524   
O334     O      0.523430000000     0.251560000000     0.755830000000    -0.463998   
O335     O      0.480380000000     0.207890000000     0.756010000000    -0.463733   
O336     O      0.980420000000     0.295130000000     0.755820000000    -0.463731   
O337     O      0.730350000000     0.295260000000     0.564260000000    -0.463677   
O338     O      0.730450000000     0.208020000000     0.564250000000    -0.463583   
O339     O      0.773430000000     0.251590000000     0.564320000000    -0.463897   
O340     O      0.685420000000     0.251660000000     0.564190000000    -0.46381    
O341     O      0.685170000000     0.251560000000     0.005850000000    -0.463333   
O342     O      0.773180000000     0.251700000000     0.005980000000    -0.463263   
O343     O      0.728180000000     0.208030000000     0.005910000000    -0.462876   
O344     O      0.728220000000     0.295260000000     0.005920000000    -0.46319    
O345     O      0.728220000000     0.295260000000     0.814250000000    -0.463845   
O346     O      0.728180000000     0.208030000000     0.814260000000    -0.463445   
O347     O      0.773180000000     0.251700000000     0.814190000000    -0.463951   
O348     O      0.685170000000     0.251570000000     0.814320000000    -0.463946   
O349     O      0.685420000000     0.251660000000     0.755980000000    -0.463903   
O350     O      0.773430000000     0.251590000000     0.755850000000    -0.463902   
O351     O      0.730450000000     0.208020000000     0.755910000000    -0.463502   
O352     O      0.730350000000     0.295260000000     0.755910000000    -0.463701   
O353     O      0.500170000000     0.455330000000     0.052290000000    -0.38217    
O354     O      0.500280000000     0.047740000000     0.552140000000    -0.381841   
O355     O      0.472950000000     0.001620000000     0.594640000000    -0.387551   
O356     O      0.528030000000     0.501450000000     0.009130000000    -0.381854   
O357     O      0.985650000000     0.501450000000     0.975530000000    -0.388506   
O358     O      0.930570000000     0.001630000000     0.561040000000    -0.383252   
O359     O      0.958430000000     0.047740000000     0.517880000000    -0.381254   
O360     O      0.958320000000     0.455340000000     0.018020000000    -0.381732   
O361     O      0.500160000000     0.455330000000     0.767870000000    -0.38226    
O362     O      0.500290000000     0.047730000000     0.768030000000    -0.381924   
O363     O      0.528040000000     0.001440000000     0.811030000000    -0.383188   
O364     O      0.472950000000     0.501620000000     0.725530000000    -0.386697   
O365     O      0.930570000000     0.501630000000     0.759130000000    -0.382401   
O366     O      0.985660000000     0.001450000000     0.844640000000    -0.389269   
O367     O      0.958440000000     0.047750000000     0.802290000000    -0.381249   
O368     O      0.958320000000     0.455340000000     0.802140000000    -0.381928   
O369     O      0.750210000000     0.455430000000     0.052220000000    -0.38221    
O370     O      0.750230000000     0.047840000000     0.552220000000    -0.38173    
O371     O      0.722940000000     0.001650000000     0.594640000000    -0.387661   
O372     O      0.778030000000     0.501630000000     0.009130000000    -0.381805   
O373     O      0.735650000000     0.501620000000     0.975530000000    -0.386848   
O374     O      0.680570000000     0.001660000000     0.561040000000    -0.383384   
O375     O      0.708390000000     0.047840000000     0.517940000000    -0.381928   
O376     O      0.708360000000     0.455440000000     0.017960000000    -0.38218    
O377     O      0.750230000000     0.047840000000     0.767950000000    -0.381745   
O378     O      0.750210000000     0.455430000000     0.767950000000    -0.382359   
O379     O      0.722940000000     0.501630000000     0.725530000000    -0.386711   
O380     O      0.778030000000     0.001630000000     0.811030000000    -0.383225   
O381     O      0.735650000000     0.001640000000     0.844640000000    -0.387506   
O382     O      0.680570000000     0.501650000000     0.759140000000    -0.382464   
O383     O      0.708360000000     0.455440000000     0.802210000000    -0.382122   
O384     O      0.708390000000     0.047850000000     0.802220000000    -0.38198    
O385     O      0.980430000000     0.795130000000     0.064350000000    -0.463651   
O386     O      0.480380000000     0.707900000000     0.064160000000    -0.463754   
O387     O      0.523430000000     0.751560000000     0.064330000000    -0.464038   
O388     O      0.935420000000     0.751500000000     0.064170000000    -0.46345    
O389     O      0.935170000000     0.751480000000     0.505830000000    -0.463649   
O390     O      0.523180000000     0.751630000000     0.506000000000    -0.463955   
O391     O      0.478210000000     0.707940000000     0.505820000000    -0.463654   
O392     O      0.978190000000     0.795180000000     0.506010000000    -0.463519   
O393     O      0.978190000000     0.795180000000     0.314160000000    -0.463646   
O394     O      0.478210000000     0.707940000000     0.314350000000    -0.463498   
O395     O      0.523180000000     0.751640000000     0.314170000000    -0.463868   
O396     O      0.935180000000     0.751490000000     0.314340000000    -0.463479   
O397     O      0.935420000000     0.751490000000     0.256000000000    -0.463478   
O398     O      0.523430000000     0.751560000000     0.255830000000    -0.463842   
O399     O      0.480380000000     0.707890000000     0.256010000000    -0.46373    
O400     O      0.980420000000     0.795130000000     0.255820000000    -0.46369    
O401     O      0.730350000000     0.795260000000     0.064260000000    -0.463618   
O402     O      0.730450000000     0.708020000000     0.064250000000    -0.463593   
O403     O      0.773430000000     0.751600000000     0.064320000000    -0.463879   
O404     O      0.685420000000     0.751660000000     0.064190000000    -0.463779   
O405     O      0.685170000000     0.751560000000     0.505850000000    -0.463991   
O406     O      0.773180000000     0.751700000000     0.505980000000    -0.463906   
O407     O      0.728180000000     0.708020000000     0.505910000000    -0.463489   
O408     O      0.728220000000     0.795260000000     0.505920000000    -0.463803   
O409     O      0.728220000000     0.795270000000     0.314250000000    -0.463734   
O410     O      0.728180000000     0.708030000000     0.314250000000    -0.463564   
O411     O      0.773180000000     0.751700000000     0.314190000000    -0.463823   
O412     O      0.685170000000     0.751570000000     0.314320000000    -0.463914   
O413     O      0.685420000000     0.751660000000     0.255980000000    -0.463906   
O414     O      0.773430000000     0.751590000000     0.255850000000    -0.464      
O415     O      0.730450000000     0.708020000000     0.255910000000    -0.463584   
O416     O      0.730350000000     0.795260000000     0.255910000000    -0.463716   
O417     O      0.500170000000     0.955330000000     0.552290000000    -0.37894    
O418     O      0.500280000000     0.547740000000     0.052140000000    -0.38235    
O419     O      0.472950000000     0.501620000000     0.094640000000    -0.386564   
O420     O      0.528030000000     0.001450000000     0.509130000000    -0.383419   
O421     O      0.985650000000     0.001450000000     0.475530000000    -0.389253   
O422     O      0.930570000000     0.501630000000     0.061030000000    -0.382385   
O423     O      0.958430000000     0.547740000000     0.017880000000    -0.381697   
O424     O      0.958320000000     0.955340000000     0.518020000000    -0.378571   
O425     O      0.500160000000     0.955330000000     0.267870000000    -0.378986   
O426     O      0.500290000000     0.547730000000     0.268030000000    -0.382406   
O427     O      0.528040000000     0.501440000000     0.311030000000    -0.382387   
O428     O      0.472950000000     0.001620000000     0.225530000000    -0.387647   
O429     O      0.930570000000     0.001630000000     0.259130000000    -0.383303   
O430     O      0.985660000000     0.501450000000     0.344640000000    -0.388213   
O431     O      0.958440000000     0.547740000000     0.302300000000    -0.381683   
O432     O      0.958320000000     0.955340000000     0.302140000000    -0.378659   
O433     O      0.750210000000     0.955440000000     0.552220000000    -0.379019   
O434     O      0.750230000000     0.547840000000     0.052210000000    -0.382346   
O435     O      0.722950000000     0.501650000000     0.094640000000    -0.386663   
O436     O      0.778030000000     0.001630000000     0.509130000000    -0.38338    
O437     O      0.735650000000     0.001620000000     0.475530000000    -0.387647   
O438     O      0.680570000000     0.501660000000     0.061040000000    -0.382502   
O439     O      0.708390000000     0.547840000000     0.017940000000    -0.382363   
O440     O      0.708360000000     0.955440000000     0.517960000000    -0.378999   
O441     O      0.750230000000     0.547840000000     0.267950000000    -0.382351   
O442     O      0.750210000000     0.955430000000     0.267960000000    -0.379213   
O443     O      0.722940000000     0.001630000000     0.225530000000    -0.387707   
O444     O      0.778030000000     0.501630000000     0.311030000000    -0.382261   
O445     O      0.735650000000     0.501640000000     0.344640000000    -0.38654    
O446     O      0.680570000000     0.001650000000     0.259140000000    -0.383337   
O447     O      0.708360000000     0.955440000000     0.302210000000    -0.378915   
O448     O      0.708390000000     0.547850000000     0.302220000000    -0.382501   
O449     O      0.980430000000     0.795130000000     0.564350000000    -0.463675   
O450     O      0.480380000000     0.707900000000     0.564160000000    -0.463771   
O451     O      0.523430000000     0.751560000000     0.564330000000    -0.464048   
O452     O      0.935420000000     0.751500000000     0.564170000000    -0.463497   
O453     O      0.935180000000     0.751480000000     0.005830000000    -0.463047   
O454     O      0.523180000000     0.751630000000     0.006000000000    -0.463292   
O455     O      0.478210000000     0.707940000000     0.005820000000    -0.462983   
O456     O      0.978190000000     0.795180000000     0.006010000000    -0.462869   
O457     O      0.978190000000     0.795180000000     0.814160000000    -0.463636   
O458     O      0.478210000000     0.707940000000     0.814350000000    -0.463507   
O459     O      0.523180000000     0.751640000000     0.814170000000    -0.463823   
O460     O      0.935170000000     0.751490000000     0.814340000000    -0.463567   
O461     O      0.935420000000     0.751490000000     0.756000000000    -0.463566   
O462     O      0.523430000000     0.751560000000     0.755830000000    -0.463995   
O463     O      0.480380000000     0.707890000000     0.756010000000    -0.463751   
O464     O      0.980430000000     0.795130000000     0.755820000000    -0.463692   
O465     O      0.730350000000     0.795260000000     0.564260000000    -0.463635   
O466     O      0.730450000000     0.708020000000     0.564250000000    -0.463643   
O467     O      0.773430000000     0.751600000000     0.564320000000    -0.4639     
O468     O      0.685420000000     0.751660000000     0.564190000000    -0.463801   
O469     O      0.685170000000     0.751560000000     0.005850000000    -0.463332   
O470     O      0.773180000000     0.751700000000     0.005980000000    -0.463256   
O471     O      0.728180000000     0.708030000000     0.005910000000    -0.462889   
O472     O      0.728220000000     0.795260000000     0.005920000000    -0.463166   
O473     O      0.728220000000     0.795270000000     0.814250000000    -0.463745   
O474     O      0.728180000000     0.708030000000     0.814260000000    -0.463421   
O475     O      0.773180000000     0.751700000000     0.814190000000    -0.463921   
O476     O      0.685170000000     0.751570000000     0.814320000000    -0.463919   
O477     O      0.685420000000     0.751660000000     0.755980000000    -0.463895   
O478     O      0.773430000000     0.751590000000     0.755850000000    -0.463903   
O479     O      0.730450000000     0.708020000000     0.755910000000    -0.463513   
O480     O      0.730350000000     0.795260000000     0.755910000000    -0.463712   
O481     O      0.500170000000     0.955330000000     0.052290000000    -0.378895   
O482     O      0.500280000000     0.547740000000     0.552140000000    -0.382377   
O483     O      0.472950000000     0.501620000000     0.594640000000    -0.386594   
O484     O      0.528040000000     0.001450000000     0.009130000000    -0.382688   
O485     O      0.985650000000     0.001450000000     0.975530000000    -0.389434   
O486     O      0.930570000000     0.501630000000     0.561040000000    -0.382351   
O487     O      0.958430000000     0.547740000000     0.517880000000    -0.381789   
O488     O      0.958320000000     0.955340000000     0.018020000000    -0.378483   
O489     O      0.500160000000     0.955330000000     0.767870000000    -0.378988   
O490     O      0.500280000000     0.547730000000     0.768030000000    -0.382571   
O491     O      0.528040000000     0.501440000000     0.811030000000    -0.382303   
O492     O      0.472950000000     0.001620000000     0.725530000000    -0.387629   
O493     O      0.930570000000     0.001630000000     0.759130000000    -0.383309   
O494     O      0.985660000000     0.501450000000     0.844640000000    -0.388344   
O495     O      0.958440000000     0.547750000000     0.802290000000    -0.381769   
O496     O      0.958320000000     0.955340000000     0.802140000000    -0.378675   
O497     O      0.750210000000     0.955440000000     0.052220000000    -0.378997   
O498     O      0.750230000000     0.547840000000     0.552220000000    -0.382249   
O499     O      0.722950000000     0.501650000000     0.594640000000    -0.386609   
O500     O      0.778030000000     0.001630000000     0.009130000000    -0.382782   
O501     O      0.735650000000     0.001620000000     0.975530000000    -0.387787   
O502     O      0.680560000000     0.501660000000     0.561040000000    -0.382265   
O503     O      0.708390000000     0.547840000000     0.517940000000    -0.382447   
O504     O      0.708360000000     0.955440000000     0.017960000000    -0.378888   
O505     O      0.750230000000     0.547840000000     0.767950000000    -0.382283   
O506     O      0.750220000000     0.955430000000     0.767950000000    -0.37911    
O507     O      0.722940000000     0.001630000000     0.725530000000    -0.38762    
O508     O      0.778030000000     0.501630000000     0.811030000000    -0.382341   
O509     O      0.735650000000     0.501640000000     0.844640000000    -0.38659    
O510     O      0.680560000000     0.001650000000     0.759140000000    -0.383216   
O511     O      0.708370000000     0.955440000000     0.802210000000    -0.379008   
O512     O      0.708390000000     0.547850000000     0.802220000000    -0.38253    


