data_structure

_audit_creation_method RASPA-1.0
_audit_creation_date 2023-5-22
_audit_author_name 'Poobodin Mano'

_cell_length_a    30.069
_cell_length_b    30.0092
_cell_length_c    36.7804
_cell_angle_alpha 89.9891
_cell_angle_beta  89.9996
_cell_angle_gamma 89.9949
_cell_volume      33188.7

_symmetry_cell_setting          triclinic
_symmetry_space_group_name_Hall 'P 1'
_symmetry_space_group_name_H-M  'P 1'
_symmetry_Int_Tables_number     1

_symmetry_equiv_pos_as_xyz 'x,y,z'

loop_
_atom_site_label
_atom_site_type_symbol
_atom_site_fract_x
_atom_site_fract_y
_atom_site_fract_z
_atom_site_charge
C1       C      0.069710000000     0.068850000000     0.049170000000     0.418267   
C2       C      0.950250000000     0.951220000000     0.068970000000     0.414474   
C3       C      0.067440000000     0.951160000000     0.069180000000     0.413993   
C4       C      0.948230000000     0.069370000000     0.049900000000     0.417157   
C5       C      0.067770000000     0.070180000000     0.298610000000     0.412535   
C6       C      0.948770000000     0.951520000000     0.317960000000     0.416243   
C7       C      0.070070000000     0.951980000000     0.318010000000     0.416777   
C8       C      0.950260000000     0.069610000000     0.298730000000     0.413788   
C9       C      0.318370000000     0.201730000000     0.985160000000     0.412588   
C10      C      0.199950000000     0.320900000000     0.004890000000     0.415371   
C11      C      0.200990000000     0.199440000000     0.005620000000     0.417301   
C12      C      0.318150000000     0.319320000000     0.985510000000     0.413899   
C13      C      0.317940000000     0.198810000000     0.236410000000     0.417062   
C14      C      0.200780000000     0.318710000000     0.256450000000     0.41476    
C15      C      0.199940000000     0.201260000000     0.256080000000     0.412319   
C16      C      0.318350000000     0.320390000000     0.236280000000     0.415781   
C17      C      0.318070000000     0.820660000000     0.127810000000     0.413262   
C18      C      0.200910000000     0.700230000000     0.109910000000     0.413923   
C19      C      0.199930000000     0.820240000000     0.110680000000     0.411889   
C20      C      0.318310000000     0.700500000000     0.128110000000     0.412503   
C21      C      0.318320000000     0.819710000000     0.378130000000     0.411929   
C22      C      0.199990000000     0.699890000000     0.360590000000     0.411575   
C23      C      0.200980000000     0.820030000000     0.359910000000     0.413788   
C24      C      0.318020000000     0.699450000000     0.377870000000     0.413084   
C25      C      0.449500000000     0.951570000000     0.420530000000     0.416714   
C26      C      0.568460000000     0.069700000000     0.941770000000     0.416743   
C27      C      0.449650000000     0.070160000000     0.941810000000     0.415687   
C28      C      0.568190000000     0.951410000000     0.420490000000     0.415872   
C29      C      0.449980000000     0.951270000000     0.170450000000     0.41933    
C30      C      0.568530000000     0.069410000000     0.191710000000     0.418915   
C31      C      0.449800000000     0.069080000000     0.192140000000     0.420592   
C32      C      0.568470000000     0.951340000000     0.170570000000     0.420138   
C33      C      0.817140000000     0.700260000000     0.109910000000     0.41482    
C34      C      0.700080000000     0.820660000000     0.127780000000     0.414175   
C35      C      0.699840000000     0.700510000000     0.128100000000     0.413034   
C36      C      0.818070000000     0.820250000000     0.110690000000     0.412779   
C37      C      0.818170000000     0.699830000000     0.360640000000     0.410541   
C38      C      0.699790000000     0.819770000000     0.378140000000     0.411208   
C39      C      0.699990000000     0.699470000000     0.377850000000     0.412107   
C40      C      0.817300000000     0.819960000000     0.359870000000     0.412566   
C41      C      0.818210000000     0.319680000000     0.006270000000     0.416685   
C42      C      0.699750000000     0.201000000000     0.985110000000     0.417106   
C43      C      0.699960000000     0.319980000000     0.985320000000     0.418522   
C44      C      0.817490000000     0.200860000000     0.006720000000     0.419434   
C45      C      0.817390000000     0.319350000000     0.256630000000     0.419278   
C46      C      0.699850000000     0.200220000000     0.235300000000     0.418495   
C47      C      0.699650000000     0.319180000000     0.235110000000     0.417353   
C48      C      0.818110000000     0.200500000000     0.256270000000     0.41682    
C49      C      0.568130000000     0.568590000000     0.420510000000     0.41847    
C50      C      0.449690000000     0.450120000000     0.941850000000     0.417956   
C51      C      0.568430000000     0.450590000000     0.941770000000     0.418834   
C52      C      0.449510000000     0.568390000000     0.420570000000     0.419443   
C53      C      0.568480000000     0.569080000000     0.170600000000     0.417715   
C54      C      0.449820000000     0.450980000000     0.192220000000     0.418627   
C55      C      0.568600000000     0.450730000000     0.191750000000     0.417219   
C56      C      0.449930000000     0.569100000000     0.170460000000     0.417409   
C57      C      0.950130000000     0.450790000000     0.048760000000     0.413768   
C58      C      0.069520000000     0.568810000000     0.068030000000     0.41739    
C59      C      0.948370000000     0.568910000000     0.067850000000     0.417774   
C60      C      0.067620000000     0.451000000000     0.048180000000     0.415161   
C61      C      0.948410000000     0.450640000000     0.299650000000     0.416457   
C62      C      0.067970000000     0.568490000000     0.318970000000     0.413666   
C63      C      0.950570000000     0.568610000000     0.319080000000     0.412681   
C64      C      0.069770000000     0.450190000000     0.299610000000     0.415637   
C65      C      0.009070000000     0.546720000000     0.161460000000     0.0392017  
C66      C      0.009050000000     0.503680000000     0.146000000000    -0.253229   
C67      C      0.009050000000     0.466520000000     0.168520000000     0.039272   
C68      C      0.009090000000     0.472410000000     0.206170000000     0.0394351  
C69      C      0.009160000000     0.515460000000     0.221620000000    -0.253809   
C70      C      0.009140000000     0.552610000000     0.199100000000     0.0395449  
C71      C      0.968660000000     0.515790000000     0.951980000000     0.0402699  
C72      C      0.008810000000     0.522410000000     0.970480000000    -0.259028   
C73      C      0.049130000000     0.516510000000     0.952060000000     0.040227   
C74      C      0.049300000000     0.503590000000     0.415580000000     0.0383249  
C75      C      0.009150000000     0.496970000000     0.397080000000    -0.256108   
C76      C      0.968830000000     0.502920000000     0.415490000000     0.0388257  
C77      C      0.468850000000     0.503520000000     0.324400000000     0.0384815  
C78      C      0.508990000000     0.496950000000     0.342970000000    -0.255048   
C79      C      0.549280000000     0.503010000000     0.324500000000     0.0386275  
C80      C      0.549430000000     0.515960000000     0.287980000000     0.0388076  
C81      C      0.509280000000     0.522520000000     0.269410000000    -0.255845   
C82      C      0.469000000000     0.516520000000     0.287900000000     0.0391433  
C83      C      0.549150000000     0.516060000000     0.037890000000     0.0394557  
C84      C      0.508890000000     0.522030000000     0.019350000000    -0.256649   
C85      C      0.468720000000     0.515730000000     0.037930000000     0.039606   
C86      C      0.468790000000     0.503120000000     0.074530000000     0.0380058  
C87      C      0.509050000000     0.497140000000     0.093070000000    -0.254064   
C88      C      0.549230000000     0.503450000000     0.074490000000     0.0379243  
C89      C      0.860970000000     0.359670000000     0.304460000000     0.00246136 
C90      C      0.851410000000     0.352560000000     0.267310000000    -0.103681   
C91      C      0.874230000000     0.377620000000     0.241200000000     0.00140102 
C92      C      0.905410000000     0.409510000000     0.251980000000     0.0014876  
C93      C      0.914960000000     0.416720000000     0.289120000000    -0.102474   
C94      C      0.892590000000     0.391200000000     0.315230000000     0.000475632
C95      C      0.657010000000     0.360570000000     0.187230000000     0.00197134 
C96      C      0.665430000000     0.352330000000     0.224420000000    -0.102365   
C97      C      0.641190000000     0.376140000000     0.250490000000     0.00068189 
C98      C      0.609860000000     0.407950000000     0.239650000000     0.00185626 
C99      C      0.601650000000     0.416400000000     0.202450000000    -0.102272   
C100     C      0.625340000000     0.392050000000     0.176380000000     0.000609431
C101     C      0.764750000000     0.300320000000     0.389050000000     0.0388145  
C102     C      0.771370000000     0.260150000000     0.407680000000    -0.255661   
C103     C      0.765600000000     0.219740000000     0.389200000000     0.0390648  
C104     C      0.752880000000     0.219510000000     0.352640000000     0.0383448  
C105     C      0.746220000000     0.259690000000     0.334030000000    -0.254815   
C106     C      0.751980000000     0.300090000000     0.352500000000     0.0385878  
C107     C      0.751950000000     0.220100000000     0.102500000000     0.0385613  
C108     C      0.746230000000     0.260510000000     0.084020000000    -0.254973   
C109     C      0.752880000000     0.300690000000     0.102630000000     0.0383323  
C110     C      0.765550000000     0.300440000000     0.139200000000     0.0392339  
C111     C      0.771290000000     0.260020000000     0.157680000000    -0.256204   
C112     C      0.764690000000     0.219850000000     0.139050000000     0.0390218  
C113     C      0.877020000000     0.376110000000     0.990600000000     0.00102334 
C114     C      0.852700000000     0.352630000000     0.016820000000    -0.102463   
C115     C      0.861390000000     0.360950000000     0.053960000000     0.00214631 
C116     C      0.893360000000     0.392240000000     0.064590000000    -0.000103805
C117     C      0.917080000000     0.416320000000     0.038350000000    -0.100245   
C118     C      0.908640000000     0.407730000000     0.001220000000     0.000960868
C119     C      0.657380000000     0.361130000000     0.937330000000     0.00215087 
C120     C      0.665750000000     0.353000000000     0.974540000000    -0.103094   
C121     C      0.641340000000     0.376650000000     0.000590000000     0.000869657
C122     C      0.609820000000     0.408190000000     0.989700000000     0.00226303 
C123     C      0.601640000000     0.416530000000     0.952500000000    -0.103102   
C124     C      0.625540000000     0.392370000000     0.926440000000     0.000878651
C125     C      0.860440000000     0.656900000000     0.313410000000     0.000554437
C126     C      0.852730000000     0.666700000000     0.350460000000    -0.0996586  
C127     C      0.878200000000     0.644670000000     0.376820000000    -0.000141158
C128     C      0.909980000000     0.613040000000     0.366400000000     0.00129346 
C129     C      0.917480000000     0.603110000000     0.329360000000    -0.100342   
C130     C      0.892620000000     0.625740000000     0.302990000000     0.000437414
C131     C      0.640030000000     0.644190000000     0.362110000000    -0.000403881
C132     C      0.665740000000     0.666240000000     0.388270000000    -0.100129   
C133     C      0.658510000000     0.656470000000     0.425380000000     0.000292788
C134     C      0.626480000000     0.625350000000     0.436070000000     0.00164272 
C135     C      0.601290000000     0.602770000000     0.409910000000    -0.103603   
C136     C      0.608360000000     0.612610000000     0.372800000000     0.00268589 
C137     C      0.721790000000     0.760510000000     0.221580000000     0.0405508  
C138     C      0.764860000000     0.760150000000     0.206400000000    -0.256933   
C139     C      0.801800000000     0.759420000000     0.229040000000     0.0409245  
C140     C      0.795670000000     0.759100000000     0.266630000000     0.0387614  
C141     C      0.752600000000     0.759450000000     0.281820000000    -0.25385    
C142     C      0.715660000000     0.760170000000     0.259180000000     0.0390986  
C143     C      0.795680000000     0.761100000000     0.016620000000     0.0399289  
C144     C      0.752610000000     0.760750000000     0.031800000000    -0.255833   
C145     C      0.715670000000     0.760020000000     0.009150000000     0.0402304  
C146     C      0.721810000000     0.759660000000     0.971560000000     0.0394308  
C147     C      0.764890000000     0.760010000000     0.956380000000    -0.255088   
C148     C      0.801820000000     0.760760000000     0.979030000000     0.0397998  
C149     C      0.859540000000     0.658200000000     0.062490000000     0.00131    
C150     C      0.851150000000     0.666890000000     0.099600000000    -0.101656   
C151     C      0.875280000000     0.643440000000     0.125920000000     0.000508162
C152     C      0.906590000000     0.611540000000     0.115380000000     0.00243898 
C153     C      0.914980000000     0.602860000000     0.078260000000    -0.103748   
C154     C      0.891330000000     0.626790000000     0.051940000000     0.00149061 
C155     C      0.658240000000     0.657540000000     0.175540000000     0.000752647
C156     C      0.665600000000     0.667250000000     0.138430000000    -0.100513   
C157     C      0.640170000000     0.644940000000     0.112230000000    -6.3684e-05 
C158     C      0.608690000000     0.613150000000     0.122870000000     0.00236999 
C159     C      0.601530000000     0.603360000000     0.159990000000    -0.103151   
C160     C      0.626410000000     0.626220000000     0.186190000000     0.00143149 
C161     C      0.608530000000     0.907440000000     0.122790000000     0.0028591  
C162     C      0.601590000000     0.917250000000     0.159920000000    -0.104433   
C163     C      0.626830000000     0.894710000000     0.186060000000     0.00191445 
C164     C      0.658810000000     0.863620000000     0.175330000000     0.000763958
C165     C      0.665920000000     0.853860000000     0.138210000000    -0.101228   
C166     C      0.640160000000     0.875890000000     0.112070000000     3.65609e-05
C167     C      0.625450000000     0.127840000000     0.176410000000     0.000916275
C168     C      0.601630000000     0.103570000000     0.202450000000    -0.103235   
C169     C      0.609810000000     0.111880000000     0.239660000000     0.00224412 
C170     C      0.641270000000     0.143470000000     0.250560000000     0.000775909
C171     C      0.665630000000     0.167200000000     0.224520000000    -0.103001   
C172     C      0.657240000000     0.159120000000     0.187310000000     0.00205387 
C173     C      0.468860000000     0.016650000000     0.324400000000     0.0373758  
C174     C      0.509000000000     0.023180000000     0.342970000000    -0.253016   
C175     C      0.549290000000     0.017120000000     0.324490000000     0.037398   
C176     C      0.549430000000     0.004200000000     0.287970000000     0.0400042  
C177     C      0.509290000000     0.997670000000     0.269400000000    -0.257655   
C178     C      0.469000000000     0.003690000000     0.287890000000     0.0401475  
C179     C      0.549140000000     0.004130000000     0.037850000000     0.0381602  
C180     C      0.508880000000     0.998150000000     0.019310000000    -0.254418   
C181     C      0.468710000000     0.004470000000     0.037890000000     0.038309   
C182     C      0.468780000000     0.017130000000     0.074470000000     0.0392364  
C183     C      0.509040000000     0.023130000000     0.093000000000    -0.256081   
C184     C      0.549220000000     0.016790000000     0.074430000000     0.0391471  
C185     C      0.626130000000     0.894130000000     0.436170000000     0.00109011 
C186     C      0.601280000000     0.917040000000     0.409950000000    -0.10227    
C187     C      0.608560000000     0.907250000000     0.372850000000     0.00210757 
C188     C      0.640080000000     0.875430000000     0.362240000000    -0.000415135
C189     C      0.665480000000     0.853080000000     0.388460000000    -0.0995606  
C190     C      0.658020000000     0.862790000000     0.425550000000     0.00042353 
C191     C      0.609800000000     0.112390000000     0.989660000000     0.00182569 
C192     C      0.601610000000     0.103930000000     0.952470000000    -0.102028   
C193     C      0.625390000000     0.128190000000     0.926390000000     0.000556238
C194     C      0.657110000000     0.159610000000     0.937230000000     0.00199034 
C195     C      0.665500000000     0.167880000000     0.974420000000    -0.102254   
C196     C      0.641200000000     0.144140000000     0.000500000000     0.000675839
C197     C      0.108370000000     0.612990000000     0.366310000000     0.00144373 
C198     C      0.100980000000     0.603010000000     0.329260000000    -0.100899   
C199     C      0.125820000000     0.625670000000     0.302910000000     0.000661306
C200     C      0.157900000000     0.656900000000     0.313350000000     0.000727914
C201     C      0.165510000000     0.666730000000     0.350400000000    -0.100145   
C202     C      0.140050000000     0.644690000000     0.376740000000     6.2021e-05 
C203     C      0.359300000000     0.656350000000     0.425420000000     0.000492682
C204     C      0.352170000000     0.666170000000     0.388300000000    -0.100532   
C205     C      0.377860000000     0.644090000000     0.362150000000    -0.000228533
C206     C      0.409420000000     0.612440000000     0.372850000000     0.0029007  
C207     C      0.416400000000     0.602570000000     0.409970000000    -0.104101   
C208     C      0.391230000000     0.625170000000     0.436120000000     0.00188857 
C209     C      0.359930000000     0.862780000000     0.425560000000     0.000465104
C210     C      0.352540000000     0.853070000000     0.388450000000    -0.0998052  
C211     C      0.377860000000     0.875490000000     0.362240000000    -0.000277292
C212     C      0.409270000000     0.907390000000     0.372860000000     0.0022858  
C213     C      0.416470000000     0.917190000000     0.409970000000    -0.102664   
C214     C      0.391700000000     0.894210000000     0.436180000000     0.00137565 
C215     C      0.216330000000     0.759450000000     0.229050000000     0.0403879  
C216     C      0.253270000000     0.760150000000     0.206400000000    -0.256001   
C217     C      0.296340000000     0.760490000000     0.221570000000     0.0400925  
C218     C      0.302480000000     0.760150000000     0.259170000000     0.0396683  
C219     C      0.265550000000     0.759460000000     0.281820000000    -0.254637   
C220     C      0.222470000000     0.759130000000     0.266640000000     0.0392787  
C221     C      0.216270000000     0.760780000000     0.979040000000     0.0403647  
C222     C      0.253200000000     0.760010000000     0.956390000000    -0.255876   
C223     C      0.296280000000     0.759630000000     0.971570000000     0.0399278  
C224     C      0.302410000000     0.760000000000     0.009170000000     0.0397557  
C225     C      0.265470000000     0.760760000000     0.031810000000    -0.254799   
C226     C      0.222400000000     0.761120000000     0.016630000000     0.0393849  
C227     C      0.111500000000     0.611420000000     0.115470000000     0.00256116 
C228     C      0.102930000000     0.602810000000     0.078370000000    -0.103536   
C229     C      0.126450000000     0.626840000000     0.052020000000     0.00149335 
C230     C      0.158280000000     0.658250000000     0.062520000000     0.00110554 
C231     C      0.166850000000     0.666870000000     0.099620000000    -0.101107   
C232     C      0.142840000000     0.643330000000     0.125980000000     0.000259054
C233     C      0.360080000000     0.657550000000     0.175520000000     0.000703956
C234     C      0.352630000000     0.667260000000     0.138430000000    -0.100087   
C235     C      0.378060000000     0.644980000000     0.112200000000    -0.00016574 
C236     C      0.409600000000     0.613210000000     0.122810000000     0.0024479  
C237     C      0.416850000000     0.603420000000     0.159920000000    -0.102897   
C238     C      0.391990000000     0.626270000000     0.186140000000     0.00142117 
C239     C      0.378080000000     0.875830000000     0.112060000000    -0.00021983 
C240     C      0.352330000000     0.853830000000     0.138230000000    -0.100491   
C241     C      0.359540000000     0.863570000000     0.175340000000     0.000549027
C242     C      0.391610000000     0.894610000000     0.186030000000     0.00186293 
C243     C      0.416820000000     0.917150000000     0.159860000000    -0.103967   
C244     C      0.409770000000     0.907340000000     0.122750000000     0.00296042 
C245     C      0.143350000000     0.376520000000     0.241040000000     0.000506269
C246     C      0.166520000000     0.351740000000     0.267130000000    -0.100999   
C247     C      0.157230000000     0.359120000000     0.304300000000     0.00143956 
C248     C      0.125660000000     0.390700000000     0.315110000000     0.000848106
C249     C      0.103030000000     0.416040000000     0.289020000000    -0.102326   
C250     C      0.112220000000     0.408490000000     0.251860000000     0.00193673 
C251     C      0.378440000000     0.375780000000     0.251350000000     0.000367294
C252     C      0.352400000000     0.353650000000     0.225470000000    -0.101942   
C253     C      0.359190000000     0.363250000000     0.188260000000     0.0013383  
C254     C      0.391160000000     0.394250000000     0.177210000000     0.00131399 
C255     C      0.416700000000     0.416890000000     0.203100000000    -0.10309    
C256     C      0.410030000000     0.407230000000     0.240310000000     0.00243798 
C257     C      0.410130000000     0.112670000000     0.240250000000     0.00285506 
C258     C      0.416560000000     0.102940000000     0.203040000000    -0.104147   
C259     C      0.390610000000     0.125160000000     0.177190000000     0.00165593 
C260     C      0.358450000000     0.155910000000     0.188310000000     0.0014057  
C261     C      0.351920000000     0.165610000000     0.225520000000    -0.102692   
C262     C      0.378350000000     0.143850000000     0.251350000000     0.000497054
C263     C      0.265300000000     0.219450000000     0.352630000000     0.0383571  
C264     C      0.272140000000     0.259630000000     0.334100000000    -0.255273   
C265     C      0.266350000000     0.300060000000     0.352510000000     0.0385264  
C266     C      0.253350000000     0.300310000000     0.388980000000     0.0387684  
C267     C      0.246550000000     0.260130000000     0.407520000000    -0.256128   
C268     C      0.252340000000     0.219700000000     0.389110000000     0.0391487  
C269     C      0.302410000000     0.260020000000     0.105680000000     0.0389108  
C270     C      0.265480000000     0.260690000000     0.083020000000    -0.252247   
C271     C      0.222430000000     0.261020000000     0.098330000000     0.0387187  
C272     C      0.216310000000     0.260720000000     0.135960000000     0.0395697  
C273     C      0.253240000000     0.260040000000     0.158630000000    -0.253565   
C274     C      0.296300000000     0.259710000000     0.143320000000     0.0393717  
C275     C      0.158630000000     0.363660000000     0.052730000000     0.00166867 
C276     C      0.165630000000     0.353940000000     0.015580000000    -0.102322   
C277     C      0.139430000000     0.375690000000     0.989570000000     0.000754842
C278     C      0.107540000000     0.406930000000     0.000420000000     0.00149878 
C279     C      0.100720000000     0.416770000000     0.037570000000    -0.101161   
C280     C      0.126350000000     0.394460000000     0.063610000000     0.00048392 
C281     C      0.377320000000     0.375560000000     0.000760000000    -5.57433e-05
C282     C      0.352630000000     0.352150000000     0.974740000000    -0.100243   
C283     C      0.360780000000     0.360500000000     0.937530000000     0.00109756 
C284     C      0.392580000000     0.391790000000     0.926600000000     0.00127023 
C285     C      0.416680000000     0.415820000000     0.952620000000    -0.102861   
C286     C      0.408800000000     0.407180000000     0.989830000000     0.00263445 
C287     C      0.377430000000     0.145260000000     0.000570000000    -0.000180384
C288     C      0.352890000000     0.168790000000     0.974500000000    -0.0994657  
C289     C      0.361100000000     0.160300000000     0.437310000000     0.000943919
C290     C      0.392770000000     0.128800000000     0.426470000000     0.000923056
C291     C      0.416700000000     0.104650000000     0.952530000000    -0.101648   
C292     C      0.408770000000     0.113410000000     0.989720000000     0.00215391 
C293     C      0.893340000000     0.127990000000     0.314580000000    -6.69073e-05
C294     C      0.917110000000     0.103980000000     0.288330000000    -0.100246   
C295     C      0.908650000000     0.112570000000     0.251200000000     0.00101252 
C296     C      0.876970000000     0.144130000000     0.240580000000     0.00104509 
C297     C      0.852620000000     0.167560000000     0.266810000000    -0.102504   
C298     C      0.861310000000     0.159230000000     0.303950000000     0.0021909  
C299     C      0.891700000000     0.893550000000     0.301970000000     0.0013007  
C300     C      0.915370000000     0.917450000000     0.328310000000    -0.103009   
C301     C      0.906920000000     0.908660000000     0.365410000000     0.00226884 
C302     C      0.875560000000     0.876740000000     0.375910000000     3.09479e-05
C303     C      0.851400000000     0.853350000000     0.349570000000    -0.100521   
C304     C      0.859850000000     0.862130000000     0.312470000000     0.000802639
C305     C      0.112080000000     0.909370000000     0.365470000000     0.00230075 
C306     C      0.103450000000     0.917940000000     0.328370000000    -0.103345   
C307     C      0.126780000000     0.893720000000     0.302030000000     0.00137479 
C308     C      0.158450000000     0.862130000000     0.312530000000     0.00112864 
C309     C      0.167050000000     0.853540000000     0.349630000000    -0.101163   
C310     C      0.143260000000     0.877290000000     0.375980000000     0.000311007
C311     C      0.124660000000     0.128690000000     0.314400000000     0.000131676
C312     C      0.100710000000     0.104810000000     0.288170000000    -0.0997925  
C313     C      0.108870000000     0.113720000000     0.251040000000     0.00121772 
C314     C      0.140510000000     0.145360000000     0.240400000000     0.000214983
C315     C      0.165140000000     0.168540000000     0.266610000000    -0.0997987  
C316     C      0.156650000000     0.159980000000     0.303750000000     0.00121764 
C317     C      0.049470000000     0.004580000000     0.202100000000     0.0393927  
C318     C      0.009260000000     0.998290000000     0.220610000000    -0.257876   
C319     C      0.968990000000     0.004220000000     0.202130000000     0.0397816  
C320     C      0.968920000000     0.016770000000     0.165560000000     0.0391452  
C321     C      0.009110000000     0.023070000000     0.147060000000    -0.256942   
C322     C      0.049390000000     0.017140000000     0.165530000000     0.0390972  
C323     C      0.008150000000     0.047510000000     0.956310000000     0.0402121  
C324     C      0.008550000000     0.004380000000     0.971630000000    -0.255206   
C325     C      0.009180000000     0.967350000000     0.949010000000     0.0403664  
C326     C      0.009420000000     0.973440000000     0.411380000000     0.0387528  
C327     C      0.009080000000     0.016570000000     0.396050000000    -0.252687   
C328     C      0.008410000000     0.053600000000     0.418680000000     0.0387473  
C329     C      0.892770000000     0.129170000000     0.065410000000     0.000588581
C330     C      0.914870000000     0.103370000000     0.039350000000    -0.102889   
C331     C      0.905150000000     0.110360000000     0.002200000000     0.00156087 
C332     C      0.874060000000     0.142320000000     0.991370000000     0.00137857 
C333     C      0.851490000000     0.167660000000     0.017440000000    -0.103799   
C334     C      0.861230000000     0.160770000000     0.054590000000     0.00244821 
C335     C      0.909840000000     0.906890000000     0.116380000000     0.00155874 
C336     C      0.917220000000     0.916820000000     0.079320000000    -0.101286   
C337     C      0.892310000000     0.894240000000     0.052970000000     0.000736627
C338     C      0.860170000000     0.863110000000     0.063440000000     0.00102312 
C339     C      0.852570000000     0.853320000000     0.100490000000    -0.100783   
C340     C      0.878090000000     0.875290000000     0.126830000000     0.000293983
C341     C      0.107960000000     0.906730000000     0.116480000000     0.00153732 
C342     C      0.100500000000     0.916690000000     0.079440000000    -0.100933   
C343     C      0.125400000000     0.894160000000     0.053050000000     0.00066332 
C344     C      0.157640000000     0.863080000000     0.063470000000     0.000907089
C345     C      0.165340000000     0.853270000000     0.100510000000    -0.100323   
C346     C      0.139800000000     0.875180000000     0.126880000000     0.000176484
C347     C      0.127320000000     0.126460000000     0.064530000000     0.0012102  
C348     C      0.103230000000     0.102540000000     0.038480000000    -0.103558   
C349     C      0.111330000000     0.110910000000     0.001260000000     0.00232702 
C350     C      0.142730000000     0.142530000000     0.990350000000     0.00109539 
C351     C      0.167230000000     0.166030000000     0.016380000000    -0.10325    
C352     C      0.159210000000     0.157600000000     0.053600000000     0.00201549 
C353     C      0.069710000000     0.068850000000     0.549170000000     0.418291   
C354     C      0.950250000000     0.951230000000     0.568970000000     0.414521   
C355     C      0.067440000000     0.951160000000     0.569180000000     0.413746   
C356     C      0.948230000000     0.069370000000     0.549900000000     0.417182   
C357     C      0.067770000000     0.070180000000     0.798610000000     0.412518   
C358     C      0.948770000000     0.951520000000     0.817960000000     0.416256   
C359     C      0.070070000000     0.951980000000     0.818010000000     0.416765   
C360     C      0.950260000000     0.069610000000     0.798730000000     0.413785   
C361     C      0.318370000000     0.201730000000     0.485160000000     0.412827   
C362     C      0.199950000000     0.320900000000     0.504890000000     0.415599   
C363     C      0.200990000000     0.199440000000     0.505620000000     0.417558   
C364     C      0.318150000000     0.319320000000     0.485510000000     0.413871   
C365     C      0.317950000000     0.198810000000     0.736410000000     0.416993   
C366     C      0.200790000000     0.318710000000     0.756460000000     0.414552   
C367     C      0.199940000000     0.201260000000     0.756090000000     0.412346   
C368     C      0.318350000000     0.320390000000     0.736280000000     0.415557   
C369     C      0.318070000000     0.820660000000     0.627810000000     0.413255   
C370     C      0.200910000000     0.700230000000     0.609910000000     0.413938   
C371     C      0.199930000000     0.820240000000     0.610680000000     0.4119     
C372     C      0.318310000000     0.700500000000     0.628110000000     0.412525   
C373     C      0.318320000000     0.819710000000     0.878130000000     0.411923   
C374     C      0.199990000000     0.699890000000     0.860590000000     0.411575   
C375     C      0.200980000000     0.820030000000     0.859910000000     0.413794   
C376     C      0.318020000000     0.699450000000     0.877870000000     0.413082   
C377     C      0.449500000000     0.951570000000     0.920530000000     0.416781   
C378     C      0.568460000000     0.069700000000     0.441780000000     0.416528   
C379     C      0.449650000000     0.070160000000     0.441810000000     0.415691   
C380     C      0.568190000000     0.951410000000     0.920490000000     0.415891   
C381     C      0.449980000000     0.951270000000     0.670450000000     0.419617   
C382     C      0.568530000000     0.069410000000     0.691710000000     0.418893   
C383     C      0.449800000000     0.069080000000     0.692140000000     0.420555   
C384     C      0.568470000000     0.951340000000     0.670570000000     0.420118   
C385     C      0.817140000000     0.700260000000     0.609910000000     0.414808   
C386     C      0.700090000000     0.820660000000     0.627780000000     0.414178   
C387     C      0.699840000000     0.700510000000     0.628100000000     0.412962   
C388     C      0.818070000000     0.820250000000     0.610690000000     0.412667   
C389     C      0.818170000000     0.699830000000     0.860640000000     0.410645   
C390     C      0.699790000000     0.819770000000     0.878140000000     0.411204   
C391     C      0.699990000000     0.699470000000     0.877850000000     0.412093   
C392     C      0.817300000000     0.819960000000     0.859870000000     0.412563   
C393     C      0.818210000000     0.319680000000     0.506270000000     0.416547   
C394     C      0.699750000000     0.201000000000     0.485110000000     0.417325   
C395     C      0.699970000000     0.319980000000     0.485320000000     0.418651   
C396     C      0.817490000000     0.200860000000     0.506730000000     0.419427   
C397     C      0.817390000000     0.319350000000     0.756640000000     0.419024   
C398     C      0.699840000000     0.200220000000     0.735300000000     0.418131   
C399     C      0.699650000000     0.319180000000     0.735110000000     0.417225   
C400     C      0.818110000000     0.200500000000     0.756270000000     0.416803   
C401     C      0.568130000000     0.568590000000     0.920510000000     0.418459   
C402     C      0.449690000000     0.450120000000     0.441850000000     0.417942   
C403     C      0.568430000000     0.450590000000     0.441780000000     0.418818   
C404     C      0.449510000000     0.568390000000     0.920570000000     0.419463   
C405     C      0.568480000000     0.569080000000     0.670600000000     0.417723   
C406     C      0.449820000000     0.450980000000     0.692220000000     0.418374   
C407     C      0.568600000000     0.450730000000     0.691750000000     0.417172   
C408     C      0.449930000000     0.569100000000     0.670460000000     0.417406   
C409     C      0.950120000000     0.450790000000     0.548760000000     0.413698   
C410     C      0.069520000000     0.568810000000     0.568030000000     0.417398   
C411     C      0.948360000000     0.568910000000     0.567850000000     0.417745   
C412     C      0.067620000000     0.451000000000     0.548180000000     0.415149   
C413     C      0.948410000000     0.450640000000     0.799650000000     0.416447   
C414     C      0.067970000000     0.568490000000     0.818970000000     0.413669   
C415     C      0.950570000000     0.568610000000     0.819080000000     0.412781   
C416     C      0.069770000000     0.450190000000     0.799610000000     0.415898   
C417     C      0.009070000000     0.546720000000     0.661460000000     0.0391748  
C418     C      0.009050000000     0.503680000000     0.646000000000    -0.253195   
C419     C      0.009050000000     0.466520000000     0.668520000000     0.0392472  
C420     C      0.009090000000     0.472410000000     0.706170000000     0.0394616  
C421     C      0.009160000000     0.515460000000     0.721620000000    -0.253867   
C422     C      0.009140000000     0.552610000000     0.699110000000     0.0395985  
C423     C      0.968650000000     0.515790000000     0.451980000000     0.040165   
C424     C      0.008810000000     0.522410000000     0.470480000000    -0.25897    
C425     C      0.049130000000     0.516510000000     0.452060000000     0.0401962  
C426     C      0.049300000000     0.503590000000     0.915580000000     0.0382963  
C427     C      0.009150000000     0.496970000000     0.897080000000    -0.256067   
C428     C      0.968830000000     0.502920000000     0.915490000000     0.0387591  
C429     C      0.468850000000     0.503530000000     0.824400000000     0.0384472  
C430     C      0.508990000000     0.496950000000     0.842970000000    -0.255002   
C431     C      0.549280000000     0.503020000000     0.824500000000     0.0385606  
C432     C      0.549420000000     0.515960000000     0.787980000000     0.0389029  
C433     C      0.509280000000     0.522520000000     0.769410000000    -0.255881   
C434     C      0.469000000000     0.516520000000     0.787900000000     0.0391709  
C435     C      0.549150000000     0.516060000000     0.537890000000     0.0394572  
C436     C      0.508890000000     0.522030000000     0.519350000000    -0.256677   
C437     C      0.468720000000     0.515730000000     0.537930000000     0.0395704  
C438     C      0.468800000000     0.503120000000     0.574530000000     0.0381019  
C439     C      0.509050000000     0.497140000000     0.593070000000    -0.254134   
C440     C      0.549230000000     0.503450000000     0.574490000000     0.0379501  
C441     C      0.860970000000     0.359670000000     0.804460000000     0.00248661 
C442     C      0.851410000000     0.352560000000     0.767310000000    -0.103629   
C443     C      0.874230000000     0.377620000000     0.741200000000     0.00139217 
C444     C      0.905410000000     0.409510000000     0.751980000000     0.00148045 
C445     C      0.914960000000     0.416720000000     0.789120000000    -0.102445   
C446     C      0.892590000000     0.391210000000     0.815240000000     0.000413554
C447     C      0.657010000000     0.360570000000     0.687230000000     0.00189377 
C448     C      0.665420000000     0.352330000000     0.724420000000    -0.10223    
C449     C      0.641190000000     0.376140000000     0.750500000000     0.000556102
C450     C      0.609860000000     0.407950000000     0.739650000000     0.00194012 
C451     C      0.601650000000     0.416400000000     0.702460000000    -0.102273   
C452     C      0.625340000000     0.392050000000     0.676380000000     0.000614483
C453     C      0.764760000000     0.300330000000     0.889050000000     0.038812   
C454     C      0.771380000000     0.260150000000     0.907670000000    -0.255705   
C455     C      0.765610000000     0.219740000000     0.889200000000     0.0391231  
C456     C      0.752880000000     0.219510000000     0.852640000000     0.0382837  
C457     C      0.746210000000     0.259690000000     0.834030000000    -0.254688   
C458     C      0.751980000000     0.300100000000     0.852510000000     0.0384934  
C459     C      0.751950000000     0.220100000000     0.602510000000     0.0386838  
C460     C      0.746230000000     0.260510000000     0.584020000000    -0.255229   
C461     C      0.752870000000     0.300690000000     0.602630000000     0.0384743  
C462     C      0.765550000000     0.300440000000     0.639210000000     0.0391062  
C463     C      0.771290000000     0.260020000000     0.657680000000    -0.255952   
C464     C      0.764680000000     0.219850000000     0.639060000000     0.0388898  
C465     C      0.877020000000     0.376110000000     0.490600000000     0.000986784
C466     C      0.852700000000     0.352630000000     0.516820000000    -0.102409   
C467     C      0.861390000000     0.360950000000     0.553960000000     0.00210678 
C468     C      0.893370000000     0.392240000000     0.564590000000    -6.1709e-05 
C469     C      0.917080000000     0.416320000000     0.538350000000    -0.100302   
C470     C      0.908640000000     0.407730000000     0.501220000000     0.000996334
C471     C      0.657380000000     0.361130000000     0.437340000000     0.00214101 
C472     C      0.665750000000     0.353000000000     0.474550000000    -0.103104   
C473     C      0.641340000000     0.376650000000     0.500590000000     0.000896954
C474     C      0.609820000000     0.408190000000     0.489700000000     0.00226708 
C475     C      0.601640000000     0.416530000000     0.452500000000    -0.103163   
C476     C      0.625540000000     0.392370000000     0.426450000000     0.000950242
C477     C      0.860440000000     0.656900000000     0.813410000000     0.000565882
C478     C      0.852730000000     0.666700000000     0.850460000000    -0.0996877  
C479     C      0.878200000000     0.644670000000     0.876820000000    -0.000134466
C480     C      0.909980000000     0.613040000000     0.866400000000     0.00130406 
C481     C      0.917480000000     0.603110000000     0.829360000000    -0.10037    
C482     C      0.892620000000     0.625740000000     0.802990000000     0.0004432  
C483     C      0.640020000000     0.644190000000     0.862110000000    -0.000459984
C484     C      0.665740000000     0.666240000000     0.888270000000    -0.100103   
C485     C      0.658510000000     0.656470000000     0.925380000000     0.000279315
C486     C      0.626480000000     0.625350000000     0.936070000000     0.00165268 
C487     C      0.601290000000     0.602770000000     0.909910000000    -0.10361    
C488     C      0.608360000000     0.612610000000     0.872800000000     0.00271224 
C489     C      0.721790000000     0.760510000000     0.721580000000     0.0405423  
C490     C      0.764860000000     0.760150000000     0.706400000000    -0.256928   
C491     C      0.801800000000     0.759420000000     0.729040000000     0.0409248  
C492     C      0.795670000000     0.759100000000     0.766630000000     0.0387542  
C493     C      0.752600000000     0.759450000000     0.781820000000    -0.253833   
C494     C      0.715660000000     0.760170000000     0.759180000000     0.0390957  
C495     C      0.795680000000     0.761100000000     0.516620000000     0.0398802  
C496     C      0.752600000000     0.760750000000     0.531800000000    -0.255869   
C497     C      0.715670000000     0.760020000000     0.509150000000     0.04031    
C498     C      0.721810000000     0.759660000000     0.471560000000     0.0393965  
C499     C      0.764890000000     0.760010000000     0.456380000000    -0.255078   
C500     C      0.801820000000     0.760760000000     0.479030000000     0.0398132  
C501     C      0.859540000000     0.658200000000     0.562490000000     0.00128162 
C502     C      0.851150000000     0.666890000000     0.599600000000    -0.101613   
C503     C      0.875280000000     0.643450000000     0.625930000000     0.000426054
C504     C      0.906600000000     0.611540000000     0.615380000000     0.00251211 
C505     C      0.914990000000     0.602860000000     0.578260000000    -0.103859   
C506     C      0.891320000000     0.626790000000     0.551940000000     0.00152837 
C507     C      0.658240000000     0.657540000000     0.675540000000     0.000704019
C508     C      0.665600000000     0.667240000000     0.638440000000    -0.100406   
C509     C      0.640170000000     0.644940000000     0.612230000000    -0.000134918
C510     C      0.608690000000     0.613150000000     0.622870000000     0.00239615 
C511     C      0.601530000000     0.603360000000     0.659990000000    -0.103171   
C512     C      0.626410000000     0.626220000000     0.686190000000     0.00145918 
C513     C      0.608530000000     0.907440000000     0.622790000000     0.00294076 
C514     C      0.601590000000     0.917250000000     0.659920000000    -0.104465   
C515     C      0.626830000000     0.894710000000     0.686060000000     0.00194191 
C516     C      0.658810000000     0.863620000000     0.675330000000     0.000720511
C517     C      0.665910000000     0.853860000000     0.638220000000    -0.101079   
C518     C      0.640160000000     0.875890000000     0.612070000000    -6.92848e-05
C519     C      0.625460000000     0.127840000000     0.676410000000     0.000921346
C520     C      0.601630000000     0.103570000000     0.702450000000    -0.103241   
C521     C      0.609810000000     0.111880000000     0.739660000000     0.0022892  
C522     C      0.641270000000     0.143470000000     0.750560000000     0.000724597
C523     C      0.665630000000     0.167200000000     0.724520000000    -0.102922   
C524     C      0.657240000000     0.159120000000     0.687310000000     0.00202404 
C525     C      0.468860000000     0.016650000000     0.824400000000     0.0374174  
C526     C      0.509000000000     0.023180000000     0.842970000000    -0.253088   
C527     C      0.549290000000     0.017120000000     0.824490000000     0.0374341  
C528     C      0.549430000000     0.004200000000     0.787970000000     0.0399769  
C529     C      0.509290000000     0.997670000000     0.769400000000    -0.257598   
C530     C      0.469000000000     0.003690000000     0.787890000000     0.0401114  
C531     C      0.549140000000     0.004130000000     0.537850000000     0.0381454  
C532     C      0.508880000000     0.998150000000     0.519310000000    -0.254353   
C533     C      0.468700000000     0.004470000000     0.537890000000     0.0381843  
C534     C      0.468790000000     0.017130000000     0.574470000000     0.0392913  
C535     C      0.509040000000     0.023130000000     0.593000000000    -0.255906   
C536     C      0.549220000000     0.016790000000     0.574430000000     0.0391028  
C537     C      0.626130000000     0.894130000000     0.936170000000     0.00109378 
C538     C      0.601280000000     0.917040000000     0.909950000000    -0.102277   
C539     C      0.608560000000     0.907250000000     0.872850000000     0.00211186 
C540     C      0.640080000000     0.875430000000     0.862240000000    -0.000417889
C541     C      0.665480000000     0.853080000000     0.888460000000    -0.099558   
C542     C      0.658020000000     0.862790000000     0.925550000000     0.000421467
C543     C      0.609800000000     0.112390000000     0.489660000000     0.00180342 
C544     C      0.601600000000     0.103930000000     0.452470000000    -0.101998   
C545     C      0.625390000000     0.128190000000     0.426390000000     0.000517064
C546     C      0.657120000000     0.159610000000     0.437230000000     0.00200507 
C547     C      0.665500000000     0.167880000000     0.474420000000    -0.102328   
C548     C      0.641200000000     0.144140000000     0.500500000000     0.000716534
C549     C      0.108370000000     0.612990000000     0.866310000000     0.00144403 
C550     C      0.100980000000     0.603010000000     0.829260000000    -0.100898   
C551     C      0.125820000000     0.625670000000     0.802910000000     0.00066184 
C552     C      0.157900000000     0.656900000000     0.813350000000     0.000727874
C553     C      0.165510000000     0.666730000000     0.850400000000    -0.100145   
C554     C      0.140050000000     0.644690000000     0.876740000000     6.21837e-05
C555     C      0.359290000000     0.656350000000     0.925420000000     0.00047118 
C556     C      0.352170000000     0.666170000000     0.888300000000    -0.100524   
C557     C      0.377860000000     0.644090000000     0.862150000000    -0.000221343
C558     C      0.409430000000     0.612440000000     0.872850000000     0.00288045 
C559     C      0.416400000000     0.602570000000     0.909970000000    -0.104095   
C560     C      0.391230000000     0.625170000000     0.936120000000     0.0018988  
C561     C      0.359930000000     0.862780000000     0.925560000000     0.000447369
C562     C      0.352540000000     0.853070000000     0.888450000000    -0.0997887  
C563     C      0.377860000000     0.875490000000     0.862240000000    -0.000305594
C564     C      0.409260000000     0.907390000000     0.872860000000     0.00233812 
C565     C      0.416480000000     0.917190000000     0.909970000000    -0.102741   
C566     C      0.391700000000     0.894210000000     0.936180000000     0.0014047  
C567     C      0.216330000000     0.759450000000     0.729050000000     0.0403882  
C568     C      0.253270000000     0.760150000000     0.706400000000    -0.256002   
C569     C      0.296340000000     0.760490000000     0.721570000000     0.0400926  
C570     C      0.302480000000     0.760150000000     0.759170000000     0.0396681  
C571     C      0.265550000000     0.759460000000     0.781820000000    -0.254637   
C572     C      0.222470000000     0.759130000000     0.766640000000     0.0392786  
C573     C      0.216270000000     0.760780000000     0.479040000000     0.0403628  
C574     C      0.253200000000     0.760010000000     0.456390000000    -0.255876   
C575     C      0.296280000000     0.759630000000     0.471570000000     0.0399259  
C576     C      0.302410000000     0.760000000000     0.509170000000     0.0397567  
C577     C      0.265470000000     0.760760000000     0.531810000000    -0.2548     
C578     C      0.222400000000     0.761120000000     0.516630000000     0.0393866  
C579     C      0.111500000000     0.611420000000     0.615470000000     0.00251604 
C580     C      0.102930000000     0.602810000000     0.578370000000    -0.103512   
C581     C      0.126450000000     0.626840000000     0.552020000000     0.00147475 
C582     C      0.158280000000     0.658250000000     0.562520000000     0.00112804 
C583     C      0.166850000000     0.666870000000     0.599620000000    -0.101151   
C584     C      0.142840000000     0.643330000000     0.625970000000     0.000341202
C585     C      0.360070000000     0.657550000000     0.675520000000     0.000683895
C586     C      0.352630000000     0.667260000000     0.638420000000    -0.100116   
C587     C      0.378060000000     0.644980000000     0.612200000000    -0.000121139
C588     C      0.409600000000     0.613210000000     0.622810000000     0.00242787 
C589     C      0.416850000000     0.603420000000     0.659920000000    -0.102887   
C590     C      0.391980000000     0.626270000000     0.686140000000     0.001417   
C591     C      0.378080000000     0.875830000000     0.612060000000    -0.000237433
C592     C      0.352330000000     0.853830000000     0.638230000000    -0.10047    
C593     C      0.359540000000     0.863570000000     0.675340000000     0.000511726
C594     C      0.391600000000     0.894610000000     0.686030000000     0.00194609 
C595     C      0.416820000000     0.917150000000     0.659870000000    -0.104097   
C596     C      0.409780000000     0.907340000000     0.622750000000     0.00299593 
C597     C      0.143350000000     0.376520000000     0.741040000000     0.000436507
C598     C      0.166520000000     0.351740000000     0.767130000000    -0.100852   
C599     C      0.157230000000     0.359120000000     0.804300000000     0.00133019 
C600     C      0.125660000000     0.390700000000     0.815110000000     0.000974709
C601     C      0.103030000000     0.416040000000     0.789030000000    -0.102483   
C602     C      0.112220000000     0.408490000000     0.751860000000     0.00199395 
C603     C      0.378440000000     0.375780000000     0.751350000000     0.000349898
C604     C      0.352400000000     0.353650000000     0.725470000000    -0.101899   
C605     C      0.359200000000     0.363250000000     0.688270000000     0.00139446 
C606     C      0.391160000000     0.394250000000     0.677210000000     0.00120947 
C607     C      0.416700000000     0.416890000000     0.703110000000    -0.10296    
C608     C      0.410030000000     0.407230000000     0.740310000000     0.0024307  
C609     C      0.410130000000     0.112670000000     0.740250000000     0.00288206 
C610     C      0.416560000000     0.102940000000     0.703050000000    -0.10414    
C611     C      0.390610000000     0.125160000000     0.677200000000     0.00168814 
C612     C      0.358460000000     0.155910000000     0.688310000000     0.00137322 
C613     C      0.351920000000     0.165610000000     0.725520000000    -0.102714   
C614     C      0.378350000000     0.143850000000     0.751350000000     0.000491905
C615     C      0.265300000000     0.219450000000     0.852630000000     0.0382555  
C616     C      0.272140000000     0.259630000000     0.834110000000    -0.255045   
C617     C      0.266350000000     0.300060000000     0.852510000000     0.0384362  
C618     C      0.253350000000     0.300310000000     0.888980000000     0.0388802  
C619     C      0.246540000000     0.260130000000     0.907520000000    -0.256344   
C620     C      0.252340000000     0.219700000000     0.889120000000     0.0392772  
C621     C      0.302410000000     0.260020000000     0.605690000000     0.0389828  
C622     C      0.265480000000     0.260690000000     0.583020000000    -0.252467   
C623     C      0.222430000000     0.261020000000     0.598330000000     0.0387875  
C624     C      0.216310000000     0.260720000000     0.635960000000     0.0395548  
C625     C      0.253240000000     0.260040000000     0.658630000000    -0.253555   
C626     C      0.296300000000     0.259710000000     0.643320000000     0.0393267  
C627     C      0.158630000000     0.363660000000     0.552730000000     0.00171713 
C628     C      0.165630000000     0.353940000000     0.515580000000    -0.10242    
C629     C      0.139430000000     0.375690000000     0.489570000000     0.000803174
C630     C      0.107540000000     0.406930000000     0.500420000000     0.00146546 
C631     C      0.100720000000     0.416770000000     0.537570000000    -0.101134   
C632     C      0.126350000000     0.394460000000     0.563610000000     0.000456585
C633     C      0.377320000000     0.375570000000     0.500760000000    -4.18265e-05
C634     C      0.352630000000     0.352150000000     0.474740000000    -0.100242   
C635     C      0.360780000000     0.360500000000     0.437530000000     0.00107449 
C636     C      0.392580000000     0.391790000000     0.426610000000     0.00130311 
C637     C      0.416680000000     0.415820000000     0.452620000000    -0.10288    
C638     C      0.408800000000     0.407180000000     0.489830000000     0.00263307 
C639     C      0.377430000000     0.145260000000     0.500570000000    -0.000151098
C640     C      0.352890000000     0.168790000000     0.474500000000    -0.099539   
C641     C      0.361100000000     0.160300000000     0.937310000000     0.000972974
C642     C      0.392770000000     0.128800000000     0.926460000000     0.000853524
C643     C      0.416700000000     0.104650000000     0.452530000000    -0.101663   
C644     C      0.408770000000     0.113410000000     0.489720000000     0.00214603 
C645     C      0.893340000000     0.127990000000     0.814580000000    -7.36402e-05
C646     C      0.917110000000     0.103980000000     0.788330000000    -0.100248   
C647     C      0.908650000000     0.112570000000     0.751200000000     0.00103022 
C648     C      0.876970000000     0.144130000000     0.740580000000     0.00100174 
C649     C      0.852620000000     0.167560000000     0.766820000000    -0.102478   
C650     C      0.861310000000     0.159230000000     0.803950000000     0.00221127 
C651     C      0.891700000000     0.893550000000     0.801970000000     0.00129709 
C652     C      0.915370000000     0.917450000000     0.828310000000    -0.102998   
C653     C      0.906930000000     0.908660000000     0.865410000000     0.00225473 
C654     C      0.875560000000     0.876740000000     0.875910000000     3.9631e-05 
C655     C      0.851400000000     0.853350000000     0.849570000000    -0.100523   
C656     C      0.859850000000     0.862130000000     0.812470000000     0.000804709
C657     C      0.112080000000     0.909370000000     0.865470000000     0.00229224 
C658     C      0.103450000000     0.917940000000     0.828370000000    -0.103334   
C659     C      0.126780000000     0.893720000000     0.802030000000     0.00135544 
C660     C      0.158450000000     0.862130000000     0.812530000000     0.00116441 
C661     C      0.167050000000     0.853540000000     0.849630000000    -0.101178   
C662     C      0.143260000000     0.877290000000     0.875980000000     0.000319354
C663     C      0.124660000000     0.128690000000     0.814400000000     8.70896e-05
C664     C      0.100710000000     0.104810000000     0.788170000000    -0.0997579  
C665     C      0.108880000000     0.113720000000     0.751040000000     0.00116699 
C666     C      0.140510000000     0.145360000000     0.740410000000     0.000295457
C667     C      0.165150000000     0.168540000000     0.766620000000    -0.0999107  
C668     C      0.156650000000     0.159980000000     0.803750000000     0.00129702 
C669     C      0.049470000000     0.004580000000     0.702100000000     0.0393184  
C670     C      0.009260000000     0.998290000000     0.720610000000    -0.257841   
C671     C      0.968990000000     0.004220000000     0.702130000000     0.0397531  
C672     C      0.968920000000     0.016770000000     0.665560000000     0.0391804  
C673     C      0.009120000000     0.023070000000     0.647050000000    -0.257158   
C674     C      0.049390000000     0.017140000000     0.665530000000     0.0392576  
C675     C      0.008150000000     0.047510000000     0.456310000000     0.0401967  
C676     C      0.008550000000     0.004380000000     0.471630000000    -0.255184   
C677     C      0.009180000000     0.967350000000     0.449010000000     0.0403641  
C678     C      0.009420000000     0.973440000000     0.911380000000     0.0387401  
C679     C      0.009080000000     0.016570000000     0.896050000000    -0.25266    
C680     C      0.008410000000     0.053600000000     0.918680000000     0.0387311  
C681     C      0.892770000000     0.129170000000     0.565410000000     0.000607867
C682     C      0.914880000000     0.103370000000     0.539350000000    -0.102943   
C683     C      0.905150000000     0.110360000000     0.502200000000     0.00156962 
C684     C      0.874060000000     0.142320000000     0.491370000000     0.00136099 
C685     C      0.851490000000     0.167660000000     0.517440000000    -0.10381    
C686     C      0.861220000000     0.160770000000     0.554590000000     0.00243938 
C687     C      0.909840000000     0.906890000000     0.616370000000     0.00162208 
C688     C      0.917220000000     0.916820000000     0.579320000000    -0.101284   
C689     C      0.892310000000     0.894240000000     0.552970000000     0.00074268 
C690     C      0.860170000000     0.863110000000     0.563440000000     0.000997659
C691     C      0.852570000000     0.853320000000     0.600490000000    -0.100738   
C692     C      0.878090000000     0.875290000000     0.626830000000     0.000244796
C693     C      0.107960000000     0.906730000000     0.616480000000     0.00147131 
C694     C      0.100500000000     0.916690000000     0.579440000000    -0.100802   
C695     C      0.125400000000     0.894160000000     0.553050000000     0.000569214
C696     C      0.157640000000     0.863080000000     0.563470000000     0.000955851
C697     C      0.165340000000     0.853270000000     0.600510000000    -0.100353   
C698     C      0.139800000000     0.875180000000     0.626880000000     0.0002145  
C699     C      0.127320000000     0.126460000000     0.564530000000     0.00117109 
C700     C      0.103230000000     0.102540000000     0.538480000000    -0.103553   
C701     C      0.111340000000     0.110910000000     0.501260000000     0.0023366  
C702     C      0.142730000000     0.142530000000     0.490350000000     0.00109586 
C703     C      0.167230000000     0.166030000000     0.516390000000    -0.103332   
C704     C      0.159210000000     0.157600000000     0.553600000000     0.00211207 
Cu1      Cu     0.009010000000     0.022960000000     0.094880000000     1.15954    
Cu2      Cu     0.008690000000     0.999850000000     0.023790000000     1.17081    
Cu3      Cu     0.009240000000     0.021110000000     0.343900000000     1.16132    
Cu4      Cu     0.009270000000     0.998260000000     0.272780000000     1.16197    
Cu5      Cu     0.269970000000     0.260620000000     0.030790000000     1.16343    
Cu6      Cu     0.246460000000     0.260320000000     0.959770000000     1.16158    
Cu7      Cu     0.272220000000     0.259580000000     0.281850000000     1.15813    
Cu8      Cu     0.248700000000     0.259860000000     0.210840000000     1.16717    
Cu9      Cu     0.270270000000     0.760690000000     0.083750000000     1.15589    
Cu10     Cu     0.248410000000     0.760360000000     0.154470000000     1.15969    
Cu11     Cu     0.270330000000     0.759510000000     0.333760000000     1.15529    
Cu12     Cu     0.248380000000     0.759800000000     0.404460000000     1.15906    
Cu13     Cu     0.508870000000     0.998700000000     0.966880000000     1.16702    
Cu14     Cu     0.508900000000     0.022760000000     0.395400000000     1.1626     
Cu15     Cu     0.509340000000     0.998130000000     0.216970000000     1.17862    
Cu16     Cu     0.509090000000     0.022540000000     0.145420000000     1.17255    
Cu17     Cu     0.769710000000     0.760360000000     0.154470000000     1.16255    
Cu18     Cu     0.747780000000     0.760680000000     0.083730000000     1.15874    
Cu19     Cu     0.769710000000     0.759800000000     0.404450000000     1.15636    
Cu20     Cu     0.747830000000     0.759520000000     0.333760000000     1.15226    
Cu21     Cu     0.770910000000     0.260320000000     0.960100000000     1.17147    
Cu22     Cu     0.746740000000     0.260580000000     0.031600000000     1.16919    
Cu23     Cu     0.770800000000     0.259860000000     0.210090000000     1.17242    
Cu24     Cu     0.746660000000     0.259610000000     0.281600000000     1.16849    
Cu25     Cu     0.508880000000     0.521510000000     0.966930000000     1.17388    
Cu26     Cu     0.508890000000     0.497310000000     0.395400000000     1.16966    
Cu27     Cu     0.509340000000     0.522030000000     0.216980000000     1.1725     
Cu28     Cu     0.509100000000     0.497790000000     0.145490000000     1.16597    
Cu29     Cu     0.009020000000     0.499430000000     0.093810000000     1.16378    
Cu30     Cu     0.008750000000     0.522500000000     0.022660000000     1.16689    
Cu31     Cu     0.009250000000     0.496850000000     0.344900000000     1.15699    
Cu32     Cu     0.009230000000     0.519800000000     0.273800000000     1.16573    
Cu33     Cu     0.009010000000     0.022960000000     0.594880000000     1.15987    
Cu34     Cu     0.008690000000     0.999860000000     0.523790000000     1.17071    
Cu35     Cu     0.009240000000     0.021110000000     0.843900000000     1.16119    
Cu36     Cu     0.009270000000     0.998260000000     0.772780000000     1.16197    
Cu37     Cu     0.269970000000     0.260620000000     0.530800000000     1.16364    
Cu38     Cu     0.246460000000     0.260320000000     0.459780000000     1.16154    
Cu39     Cu     0.272220000000     0.259580000000     0.781850000000     1.15793    
Cu40     Cu     0.248710000000     0.259860000000     0.710840000000     1.16717    
Cu41     Cu     0.270270000000     0.760690000000     0.583750000000     1.15589    
Cu42     Cu     0.248410000000     0.760360000000     0.654470000000     1.15969    
Cu43     Cu     0.270330000000     0.759510000000     0.833760000000     1.15529    
Cu44     Cu     0.248380000000     0.759800000000     0.904460000000     1.15906    
Cu45     Cu     0.508870000000     0.998700000000     0.466880000000     1.16699    
Cu46     Cu     0.508900000000     0.022760000000     0.895400000000     1.16287    
Cu47     Cu     0.509340000000     0.998130000000     0.716970000000     1.17844    
Cu48     Cu     0.509090000000     0.022540000000     0.645430000000     1.17233    
Cu49     Cu     0.769710000000     0.760360000000     0.654470000000     1.16253    
Cu50     Cu     0.747780000000     0.760680000000     0.583730000000     1.15883    
Cu51     Cu     0.769710000000     0.759800000000     0.904450000000     1.15638    
Cu52     Cu     0.747830000000     0.759520000000     0.833760000000     1.15217    
Cu53     Cu     0.770910000000     0.260320000000     0.460110000000     1.17145    
Cu54     Cu     0.746740000000     0.260580000000     0.531610000000     1.16931    
Cu55     Cu     0.770800000000     0.259860000000     0.710100000000     1.17224    
Cu56     Cu     0.746660000000     0.259610000000     0.781600000000     1.16835    
Cu57     Cu     0.508880000000     0.521510000000     0.466930000000     1.17411    
Cu58     Cu     0.508890000000     0.497310000000     0.895400000000     1.1696     
Cu59     Cu     0.509340000000     0.522030000000     0.716980000000     1.17244    
Cu60     Cu     0.509100000000     0.497790000000     0.645490000000     1.16605    
Cu61     Cu     0.009020000000     0.499430000000     0.593810000000     1.16365    
Cu62     Cu     0.008750000000     0.522500000000     0.522660000000     1.16687    
Cu63     Cu     0.009250000000     0.496850000000     0.844900000000     1.15691    
Cu64     Cu     0.009230000000     0.519800000000     0.773800000000     1.16581    
H1       H      0.009050000000     0.575880000000     0.144190000000     0.0256584  
H2       H      0.009010000000     0.433400000000     0.156900000000     0.0189588  
H3       H      0.009050000000     0.443260000000     0.223450000000     0.0259682  
H4       H      0.009170000000     0.585730000000     0.210720000000     0.0186103  
H5       H      0.937360000000     0.519210000000     0.966220000000     0.0249081  
H6       H      0.080310000000     0.520470000000     0.966360000000     0.0252427  
H7       H      0.080600000000     0.500140000000     0.401360000000     0.0256637  
H8       H      0.937650000000     0.499000000000     0.401170000000     0.0254691  
H9       H      0.437540000000     0.500040000000     0.338600000000     0.0254301  
H10      H      0.580480000000     0.499180000000     0.338800000000     0.0252697  
H11      H      0.580730000000     0.519410000000     0.273770000000     0.0250768  
H12      H      0.437790000000     0.520390000000     0.273610000000     0.0253616  
H13      H      0.580380000000     0.519750000000     0.023610000000     0.0249237  
H14      H      0.437440000000     0.519160000000     0.023680000000     0.025005   
H15      H      0.437570000000     0.499470000000     0.088820000000     0.0257099  
H16      H      0.580510000000     0.500050000000     0.088740000000     0.0254137  
H17      H      0.844160000000     0.340650000000     0.325380000000     0.0428022  
H18      H      0.867650000000     0.373000000000     0.212490000000     0.0421606  
H19      H      0.922180000000     0.428430000000     0.230990000000     0.0430483  
H20      H      0.899190000000     0.395830000000     0.343940000000     0.0424784  
H21      H      0.674840000000     0.342560000000     0.166280000000     0.0430526  
H22      H      0.646760000000     0.370610000000     0.279240000000     0.04231    
H23      H      0.591920000000     0.425860000000     0.260590000000     0.0428748  
H24      H      0.619830000000     0.397630000000     0.147630000000     0.042373   
H25      H      0.768060000000     0.331720000000     0.403230000000     0.0248777  
H26      H      0.769510000000     0.188510000000     0.403530000000     0.0250455  
H27      H      0.749620000000     0.188120000000     0.338430000000     0.0250601  
H28      H      0.748040000000     0.331340000000     0.338190000000     0.0252417  
H29      H      0.748030000000     0.188860000000     0.088180000000     0.0252995  
H30      H      0.749650000000     0.332080000000     0.088420000000     0.0250792  
H31      H      0.769450000000     0.331670000000     0.153540000000     0.02502    
H32      H      0.767970000000     0.188450000000     0.153250000000     0.0248441  
H33      H      0.871280000000     0.370500000000     0.961880000000     0.0422792  
H34      H      0.843500000000     0.343160000000     0.075010000000     0.0426837  
H35      H      0.899050000000     0.397960000000     0.093300000000     0.0429977  
H36      H      0.926580000000     0.425430000000     0.980160000000     0.0430475  
H37      H      0.675360000000     0.343210000000     0.416430000000     0.0427794  
H38      H      0.646880000000     0.371150000000     0.029350000000     0.042442   
H39      H      0.591720000000     0.425980000000     0.010620000000     0.0429385  
H40      H      0.620040000000     0.397910000000     0.397690000000     0.0422901  
H41      H      0.841600000000     0.673380000000     0.292230000000     0.0427105  
H42      H      0.873240000000     0.651440000000     0.405460000000     0.0429746  
H43      H      0.928810000000     0.596400000000     0.387530000000     0.0429066  
H44      H      0.897500000000     0.618910000000     0.274350000000     0.0428945  
H45      H      0.644640000000     0.650960000000     0.333420000000     0.0431467  
H46      H      0.677560000000     0.672970000000     0.446410000000     0.0429973  
H47      H      0.621910000000     0.618570000000     0.464760000000     0.0419352  
H48      H      0.589250000000     0.595990000000     0.351830000000     0.0425993  
H49      H      0.692830000000     0.761000000000     0.204150000000     0.0252786  
H50      H      0.834920000000     0.759130000000     0.217560000000     0.018963   
H51      H      0.824630000000     0.758700000000     0.284050000000     0.0256775  
H52      H      0.682530000000     0.760520000000     0.270650000000     0.0196165  
H53      H      0.824630000000     0.761510000000     0.034050000000     0.0252762  
H54      H      0.682540000000     0.759680000000     0.020620000000     0.0193063  
H55      H      0.692860000000     0.759170000000     0.954130000000     0.025672   
H56      H      0.834950000000     0.761050000000     0.967560000000     0.019261   
H57      H      0.841650000000     0.675830000000     0.041370000000     0.0425312  
H58      H      0.869630000000     0.649330000000     0.154610000000     0.0429503  
H59      H      0.924400000000     0.593800000000     0.136480000000     0.0421368  
H60      H      0.896970000000     0.620930000000     0.023250000000     0.0422111  
H61      H      0.677070000000     0.674240000000     0.196610000000     0.0431087  
H62      H      0.644900000000     0.651650000000     0.083550000000     0.0429355  
H63      H      0.589790000000     0.596330000000     0.101890000000     0.0426314  
H64      H      0.621750000000     0.619500000000     0.214880000000     0.0422104  
H65      H      0.589350000000     0.924050000000     0.101870000000     0.0425097  
H66      H      0.622340000000     0.901500000000     0.214760000000     0.0419842  
H67      H      0.677920000000     0.847120000000     0.196350000000     0.0429487  
H68      H      0.644700000000     0.869100000000     0.083380000000     0.0430859  
H69      H      0.619950000000     0.122330000000     0.147650000000     0.0422392  
H70      H      0.591760000000     0.094010000000     0.260560000000     0.0427936  
H71      H      0.646820000000     0.148920000000     0.279320000000     0.0424189  
H72      H      0.675170000000     0.177110000000     0.166410000000     0.0427833  
H73      H      0.437550000000     0.020130000000     0.338600000000     0.025742   
H74      H      0.580490000000     0.020930000000     0.338790000000     0.025619   
H75      H      0.580730000000     0.000740000000     0.273750000000     0.0246989  
H76      H      0.437790000000     0.999840000000     0.273610000000     0.0250831  
H77      H      0.580370000000     0.000430000000     0.023560000000     0.0253296  
H78      H      0.437420000000     0.001030000000     0.023640000000     0.0254095  
H79      H      0.437560000000     0.020790000000     0.088770000000     0.0253701  
H80      H      0.580500000000     0.020210000000     0.088680000000     0.0250522  
H81      H      0.621410000000     0.900830000000     0.464850000000     0.0421664  
H82      H      0.589730000000     0.924090000000     0.351830000000     0.0427602  
H83      H      0.644870000000     0.868750000000     0.333560000000     0.0429784  
H84      H      0.676800000000     0.846060000000     0.446640000000     0.0431255  
H85      H      0.591810000000     0.094540000000     0.010610000000     0.0430146  
H86      H      0.619900000000     0.122600000000     0.397650000000     0.0424372  
H87      H      0.675010000000     0.177570000000     0.916280000000     0.0430684  
H88      H      0.646740000000     0.149690000000     0.029250000000     0.0423186  
H89      H      0.089530000000     0.596340000000     0.387420000000     0.0427105  
H90      H      0.121010000000     0.618800000000     0.274260000000     0.0428526  
H91      H      0.176740000000     0.673400000000     0.292180000000     0.0427182  
H92      H      0.144940000000     0.651490000000     0.405390000000     0.0429138  
H93      H      0.340240000000     0.672890000000     0.446440000000     0.0430492  
H94      H      0.373310000000     0.650900000000     0.333460000000     0.0431659  
H95      H      0.428550000000     0.595810000000     0.351900000000     0.0425025  
H96      H      0.395740000000     0.618350000000     0.464810000000     0.041968   
H97      H      0.341190000000     0.845990000000     0.446630000000     0.043197   
H98      H      0.373110000000     0.868800000000     0.333560000000     0.0430115  
H99      H      0.428070000000     0.924280000000     0.351860000000     0.0426715  
H100     H      0.396390000000     0.900910000000     0.464870000000     0.0422064  
H101     H      0.183210000000     0.759170000000     0.217580000000     0.0190848  
H102     H      0.325290000000     0.760970000000     0.204140000000     0.0254555  
H103     H      0.335610000000     0.760480000000     0.270640000000     0.0194745  
H104     H      0.193520000000     0.758750000000     0.284060000000     0.0254676  
H105     H      0.183140000000     0.761090000000     0.967560000000     0.0190666  
H106     H      0.325230000000     0.759110000000     0.954150000000     0.0255288  
H107     H      0.335530000000     0.759630000000     0.020640000000     0.0194811  
H108     H      0.193440000000     0.761550000000     0.034050000000     0.0254382  
H109     H      0.093810000000     0.593630000000     0.136610000000     0.0421865  
H110     H      0.120670000000     0.621040000000     0.023340000000     0.0420793  
H111     H      0.176060000000     0.675950000000     0.041390000000     0.0425557  
H112     H      0.148620000000     0.649150000000     0.154660000000     0.0430566  
H113     H      0.341260000000     0.674240000000     0.196610000000     0.0431385  
H114     H      0.373260000000     0.651670000000     0.083520000000     0.0430382  
H115     H      0.428470000000     0.596410000000     0.101800000000     0.0428003  
H116     H      0.396700000000     0.619550000000     0.214820000000     0.0421614  
H117     H      0.373470000000     0.869070000000     0.083380000000     0.0432388  
H118     H      0.340450000000     0.847090000000     0.196370000000     0.0430383  
H119     H      0.396160000000     0.901400000000     0.214720000000     0.0419589  
H120     H      0.428920000000     0.923920000000     0.101790000000     0.0426753  
H121     H      0.149690000000     0.371700000000     0.212310000000     0.0430856  
H122     H      0.174290000000     0.340310000000     0.325220000000     0.0429808  
H123     H      0.119340000000     0.395560000000     0.343840000000     0.0423854  
H124     H      0.095240000000     0.427250000000     0.230880000000     0.0428415  
H125     H      0.374180000000     0.369140000000     0.280090000000     0.0425919  
H126     H      0.339880000000     0.346660000000     0.167430000000     0.0431445  
H127     H      0.395400000000     0.400910000000     0.148470000000     0.0421983  
H128     H      0.429420000000     0.423880000000     0.261080000000     0.0429804  
H129     H      0.429850000000     0.096300000000     0.260970000000     0.0428876  
H130     H      0.394670000000     0.118380000000     0.148460000000     0.042028   
H131     H      0.338810000000     0.172220000000     0.167530000000     0.0430414  
H132     H      0.374290000000     0.150610000000     0.280090000000     0.0427561  
H133     H      0.268600000000     0.188070000000     0.338420000000     0.0252485  
H134     H      0.270440000000     0.331280000000     0.338200000000     0.0254556  
H135     H      0.250000000000     0.331700000000     0.403160000000     0.0250581  
H136     H      0.248270000000     0.188480000000     0.403440000000     0.0252261  
H137     H      0.335540000000     0.259690000000     0.094200000000     0.0191132  
H138     H      0.193420000000     0.261390000000     0.080960000000     0.0259805  
H139     H      0.183190000000     0.260990000000     0.147440000000     0.0186837  
H140     H      0.325300000000     0.259250000000     0.160690000000     0.0260369  
H141     H      0.178060000000     0.347370000000     0.073650000000     0.0427012  
H142     H      0.143810000000     0.368930000000     0.960860000000     0.0425324  
H143     H      0.088100000000     0.423340000000     0.979550000000     0.0430901  
H144     H      0.121990000000     0.401290000000     0.092310000000     0.0429311  
H145     H      0.371980000000     0.369900000000     0.029510000000     0.0432799  
H146     H      0.342620000000     0.342750000000     0.916630000000     0.0429669  
H147     H      0.397850000000     0.397520000000     0.897840000000     0.0422584  
H148     H      0.427060000000     0.424840000000     0.010730000000     0.0429166  
H149     H      0.372040000000     0.150970000000     0.029310000000     0.0431848  
H150     H      0.343040000000     0.178090000000     0.416370000000     0.0433251  
H151     H      0.398060000000     0.123010000000     0.397720000000     0.0423979  
H152     H      0.426890000000     0.095670000000     0.010660000000     0.043026   
H153     H      0.899040000000     0.122270000000     0.343280000000     0.0430671  
H154     H      0.926610000000     0.094910000000     0.230130000000     0.0431893  
H155     H      0.871220000000     0.149760000000     0.211870000000     0.0423027  
H156     H      0.843400000000     0.176980000000     0.325000000000     0.0426985  
H157     H      0.897370000000     0.899470000000     0.273280000000     0.0421025  
H158     H      0.924730000000     0.926340000000     0.386540000000     0.0422203  
H159     H      0.869890000000     0.870820000000     0.404590000000     0.0430401  
H160     H      0.841970000000     0.844550000000     0.291330000000     0.0425969  
H161     H      0.094550000000     0.927320000000     0.386600000000     0.0422025  
H162     H      0.120940000000     0.899460000000     0.273340000000     0.0421697  
H163     H      0.176070000000     0.844280000000     0.291400000000     0.0425081  
H164     H      0.149090000000     0.871510000000     0.404660000000     0.0429752  
H165     H      0.119190000000     0.122750000000     0.343100000000     0.043029   
H166     H      0.090750000000     0.096200000000     0.229990000000     0.0431363  
H167     H      0.146080000000     0.151160000000     0.211690000000     0.043065   
H168     H      0.174760000000     0.177530000000     0.324800000000     0.0428638  
H169     H      0.080730000000     0.001130000000     0.216380000000     0.0252712  
H170     H      0.937780000000     0.000500000000     0.216430000000     0.0251071  
H171     H      0.937660000000     0.020190000000     0.151270000000     0.0253044  
H172     H      0.080600000000     0.020820000000     0.151220000000     0.0255949  
H173     H      0.007750000000     0.076570000000     0.973670000000     0.025553   
H174     H      0.009530000000     0.934170000000     0.960520000000     0.0182799  
H175     H      0.009840000000     0.944370000000     0.394020000000     0.0257993  
H176     H      0.008110000000     0.086770000000     0.407170000000     0.0190891  
H177     H      0.899510000000     0.124720000000     0.094120000000     0.0424274  
H178     H      0.921690000000     0.091200000000     0.981240000000     0.0429262  
H179     H      0.867320000000     0.146750000000     0.962660000000     0.042115   
H180     H      0.844600000000     0.180010000000     0.075480000000     0.0427903  
H181     H      0.928740000000     0.923510000000     0.137470000000     0.0427481  
H182     H      0.897110000000     0.901090000000     0.024320000000     0.0429491  
H183     H      0.841280000000     0.846660000000     0.042280000000     0.0426582  
H184     H      0.873190000000     0.868500000000     0.155480000000     0.0428948  
H185     H      0.089080000000     0.923310000000     0.137600000000     0.0428915  
H186     H      0.120540000000     0.901040000000     0.024410000000     0.042873   
H187     H      0.176530000000     0.846680000000     0.042280000000     0.0426862  
H188     H      0.144750000000     0.868380000000     0.155520000000     0.0429761  
H189     H      0.121920000000     0.120810000000     0.093280000000     0.042197   
H190     H      0.093210000000     0.093170000000     0.980350000000     0.0425094  
H191     H      0.148070000000     0.148210000000     0.961590000000     0.0423817  
H192     H      0.177400000000     0.175290000000     0.074500000000     0.0425011  
H193     H      0.009050000000     0.575880000000     0.644190000000     0.0256615  
H194     H      0.009010000000     0.433400000000     0.656900000000     0.0189663  
H195     H      0.009050000000     0.443260000000     0.723450000000     0.0259564  
H196     H      0.009170000000     0.585730000000     0.710720000000     0.0185901  
H197     H      0.937360000000     0.519210000000     0.466220000000     0.0249311  
H198     H      0.080310000000     0.520470000000     0.466360000000     0.0252503  
H199     H      0.080600000000     0.500140000000     0.901360000000     0.0256733  
H200     H      0.937650000000     0.499000000000     0.901170000000     0.0254813  
H201     H      0.437540000000     0.500040000000     0.838600000000     0.0254441  
H202     H      0.580480000000     0.499180000000     0.838800000000     0.02529    
H203     H      0.580730000000     0.519410000000     0.773770000000     0.0250529  
H204     H      0.437790000000     0.520390000000     0.773610000000     0.0253601  
H205     H      0.580380000000     0.519750000000     0.523610000000     0.0249188  
H206     H      0.437440000000     0.519160000000     0.523680000000     0.0250083  
H207     H      0.437570000000     0.499470000000     0.588820000000     0.025682   
H208     H      0.580510000000     0.500050000000     0.588750000000     0.0254095  
H209     H      0.844160000000     0.340650000000     0.825390000000     0.0427935  
H210     H      0.867650000000     0.373000000000     0.712490000000     0.0421678  
H211     H      0.922180000000     0.428430000000     0.730990000000     0.0430497  
H212     H      0.899180000000     0.395830000000     0.843940000000     0.0424942  
H213     H      0.674840000000     0.342560000000     0.666290000000     0.0430722  
H214     H      0.646760000000     0.370620000000     0.779240000000     0.042346   
H215     H      0.591920000000     0.425860000000     0.760590000000     0.042855   
H216     H      0.619830000000     0.397630000000     0.647630000000     0.042366   
H217     H      0.768060000000     0.331720000000     0.903240000000     0.0248699  
H218     H      0.769520000000     0.188500000000     0.903540000000     0.0250256  
H219     H      0.749620000000     0.188120000000     0.838440000000     0.0250769  
H220     H      0.748040000000     0.331340000000     0.838190000000     0.0252847  
H221     H      0.748030000000     0.188860000000     0.588190000000     0.025259   
H222     H      0.749650000000     0.332080000000     0.588420000000     0.025039   
H223     H      0.769440000000     0.331670000000     0.653540000000     0.0250466  
H224     H      0.767970000000     0.188450000000     0.653250000000     0.0248821  
H225     H      0.871280000000     0.370500000000     0.461880000000     0.0422877  
H226     H      0.843500000000     0.343160000000     0.575010000000     0.0426894  
H227     H      0.899050000000     0.397960000000     0.593300000000     0.0429833  
H228     H      0.926580000000     0.425430000000     0.480160000000     0.0430386  
H229     H      0.675360000000     0.343210000000     0.916430000000     0.0427809  
H230     H      0.646880000000     0.371150000000     0.529350000000     0.0424368  
H231     H      0.591710000000     0.425980000000     0.510620000000     0.0429343  
H232     H      0.620040000000     0.397910000000     0.897690000000     0.0423138  
H233     H      0.841600000000     0.673380000000     0.792230000000     0.0427106  
H234     H      0.873240000000     0.651440000000     0.905460000000     0.042972   
H235     H      0.928810000000     0.596400000000     0.887530000000     0.0429075  
H236     H      0.897500000000     0.618910000000     0.774350000000     0.0428915  
H237     H      0.644640000000     0.650960000000     0.833430000000     0.0431668  
H238     H      0.677560000000     0.672970000000     0.946410000000     0.0430009  
H239     H      0.621920000000     0.618570000000     0.964760000000     0.0419307  
H240     H      0.589250000000     0.595990000000     0.851830000000     0.0425918  
H241     H      0.692840000000     0.761000000000     0.704150000000     0.0252819  
H242     H      0.834920000000     0.759130000000     0.717560000000     0.0189624  
H243     H      0.824630000000     0.758700000000     0.784050000000     0.0256843  
H244     H      0.682530000000     0.760520000000     0.770660000000     0.0196223  
H245     H      0.824630000000     0.761510000000     0.534050000000     0.0252826  
H246     H      0.682550000000     0.759680000000     0.520620000000     0.0192842  
H247     H      0.692860000000     0.759170000000     0.454130000000     0.0256806  
H248     H      0.834950000000     0.761050000000     0.467560000000     0.0192569  
H249     H      0.841650000000     0.675830000000     0.541370000000     0.0425379  
H250     H      0.869620000000     0.649330000000     0.654610000000     0.0429778  
H251     H      0.924400000000     0.593800000000     0.636480000000     0.0421201  
H252     H      0.896970000000     0.620930000000     0.523250000000     0.0422008  
H253     H      0.677070000000     0.674240000000     0.696600000000     0.0431276  
H254     H      0.644900000000     0.651650000000     0.583550000000     0.0429503  
H255     H      0.589800000000     0.596330000000     0.601890000000     0.0426234  
H256     H      0.621750000000     0.619500000000     0.714880000000     0.0422036  
H257     H      0.589340000000     0.924050000000     0.601860000000     0.0424822  
H258     H      0.622340000000     0.901500000000     0.714760000000     0.0419769  
H259     H      0.677920000000     0.847120000000     0.696350000000     0.0429601  
H260     H      0.644700000000     0.869100000000     0.583380000000     0.0431115  
H261     H      0.619950000000     0.122330000000     0.647650000000     0.0422413  
H262     H      0.591760000000     0.094010000000     0.760570000000     0.0427747  
H263     H      0.646820000000     0.148920000000     0.779320000000     0.0424354  
H264     H      0.675170000000     0.177110000000     0.666410000000     0.0427911  
H265     H      0.437550000000     0.020130000000     0.838600000000     0.0257315  
H266     H      0.580490000000     0.020930000000     0.838790000000     0.0256076  
H267     H      0.580740000000     0.000740000000     0.773750000000     0.0247098  
H268     H      0.437790000000     0.999840000000     0.773610000000     0.025098   
H269     H      0.580360000000     0.000430000000     0.523560000000     0.0253378  
H270     H      0.437430000000     0.001030000000     0.523640000000     0.0254409  
H271     H      0.437560000000     0.020790000000     0.588760000000     0.0253588  
H272     H      0.580500000000     0.020220000000     0.588680000000     0.0250732  
H273     H      0.621410000000     0.900830000000     0.964850000000     0.0421658  
H274     H      0.589730000000     0.924090000000     0.851830000000     0.0427587  
H275     H      0.644870000000     0.868750000000     0.833560000000     0.0429789  
H276     H      0.676800000000     0.846060000000     0.946640000000     0.0431263  
H277     H      0.591800000000     0.094540000000     0.510610000000     0.043029   
H278     H      0.619900000000     0.122600000000     0.897640000000     0.0424171  
H279     H      0.675010000000     0.177570000000     0.416290000000     0.0430687  
H280     H      0.646740000000     0.149690000000     0.529250000000     0.0423094  
H281     H      0.089530000000     0.596340000000     0.887420000000     0.0427111  
H282     H      0.121010000000     0.618800000000     0.774260000000     0.0428527  
H283     H      0.176740000000     0.673400000000     0.792180000000     0.0427184  
H284     H      0.144940000000     0.651490000000     0.905390000000     0.0429141  
H285     H      0.340240000000     0.672880000000     0.946440000000     0.0430566  
H286     H      0.373310000000     0.650900000000     0.833460000000     0.0431641  
H287     H      0.428550000000     0.595820000000     0.851900000000     0.0425068  
H288     H      0.395740000000     0.618350000000     0.964810000000     0.0419709  
H289     H      0.341190000000     0.845990000000     0.946630000000     0.0432018  
H290     H      0.373110000000     0.868800000000     0.833560000000     0.0430191  
H291     H      0.428070000000     0.924280000000     0.851860000000     0.042659   
H292     H      0.396390000000     0.900910000000     0.964870000000     0.0422006  
H293     H      0.183210000000     0.759170000000     0.717580000000     0.0190849  
H294     H      0.325290000000     0.760970000000     0.704140000000     0.0254552  
H295     H      0.335610000000     0.760480000000     0.770640000000     0.0194744  
H296     H      0.193520000000     0.758750000000     0.784060000000     0.0254679  
H297     H      0.183140000000     0.761090000000     0.467560000000     0.019067   
H298     H      0.325230000000     0.759110000000     0.454150000000     0.0255281  
H299     H      0.335530000000     0.759630000000     0.520640000000     0.0194806  
H300     H      0.193440000000     0.761550000000     0.534050000000     0.0254384  
H301     H      0.093810000000     0.593630000000     0.636610000000     0.042199   
H302     H      0.120670000000     0.621040000000     0.523340000000     0.0420841  
H303     H      0.176060000000     0.675950000000     0.541390000000     0.0425501  
H304     H      0.148620000000     0.649150000000     0.654660000000     0.0430303  
H305     H      0.341260000000     0.674240000000     0.696610000000     0.0431445  
H306     H      0.373260000000     0.651670000000     0.583520000000     0.043028   
H307     H      0.428470000000     0.596410000000     0.601800000000     0.0428043  
H308     H      0.396700000000     0.619550000000     0.714820000000     0.0421638  
H309     H      0.373470000000     0.869070000000     0.583380000000     0.0432441  
H310     H      0.340450000000     0.847090000000     0.696370000000     0.0430479  
H311     H      0.396160000000     0.901400000000     0.714720000000     0.0419439  
H312     H      0.428930000000     0.923930000000     0.601790000000     0.0426633  
H313     H      0.149700000000     0.371700000000     0.712310000000     0.0431086  
H314     H      0.174290000000     0.340310000000     0.825220000000     0.0430157  
H315     H      0.119340000000     0.395560000000     0.843840000000     0.0423536  
H316     H      0.095240000000     0.427250000000     0.730880000000     0.0428201  
H317     H      0.374180000000     0.369150000000     0.780090000000     0.0425961  
H318     H      0.339880000000     0.346660000000     0.667440000000     0.043133   
H319     H      0.395400000000     0.400910000000     0.648470000000     0.0422252  
H320     H      0.429430000000     0.423880000000     0.761080000000     0.0429908  
H321     H      0.429850000000     0.096300000000     0.760970000000     0.0428813  
H322     H      0.394670000000     0.118380000000     0.648460000000     0.0420164  
H323     H      0.338820000000     0.172220000000     0.667540000000     0.0430539  
H324     H      0.374290000000     0.150610000000     0.780090000000     0.0427553  
H325     H      0.268600000000     0.188070000000     0.838420000000     0.0252732  
H326     H      0.270450000000     0.331290000000     0.838200000000     0.0254856  
H327     H      0.249990000000     0.331700000000     0.903170000000     0.0250414  
H328     H      0.248270000000     0.188480000000     0.903440000000     0.0251895  
H329     H      0.335540000000     0.259690000000     0.594210000000     0.0190911  
H330     H      0.193430000000     0.261390000000     0.580960000000     0.0259589  
H331     H      0.183190000000     0.260990000000     0.647450000000     0.0186937  
H332     H      0.325300000000     0.259250000000     0.660700000000     0.0260441  
H333     H      0.178060000000     0.347370000000     0.573650000000     0.0426869  
H334     H      0.143810000000     0.368930000000     0.460860000000     0.0425125  
H335     H      0.088100000000     0.423330000000     0.479550000000     0.043097   
H336     H      0.121990000000     0.401290000000     0.592310000000     0.0429385  
H337     H      0.371980000000     0.369900000000     0.529520000000     0.043271   
H338     H      0.342620000000     0.342750000000     0.416630000000     0.0429665  
H339     H      0.397850000000     0.397520000000     0.397850000000     0.0422446  
H340     H      0.427060000000     0.424840000000     0.510730000000     0.0429171  
H341     H      0.372040000000     0.150970000000     0.529310000000     0.0431746  
H342     H      0.343040000000     0.178090000000     0.916360000000     0.0433151  
H343     H      0.398060000000     0.123010000000     0.897720000000     0.0424135  
H344     H      0.426890000000     0.095670000000     0.510660000000     0.0430306  
H345     H      0.899040000000     0.122270000000     0.843280000000     0.0430683  
H346     H      0.926610000000     0.094910000000     0.730130000000     0.043185   
H347     H      0.871220000000     0.149760000000     0.711870000000     0.0423113  
H348     H      0.843400000000     0.176980000000     0.825000000000     0.0426923  
H349     H      0.897360000000     0.899470000000     0.773280000000     0.0421009  
H350     H      0.924730000000     0.926340000000     0.886540000000     0.0422261  
H351     H      0.869890000000     0.870820000000     0.904590000000     0.0430382  
H352     H      0.841970000000     0.844550000000     0.791330000000     0.0425963  
H353     H      0.094550000000     0.927320000000     0.886600000000     0.0422039  
H354     H      0.120940000000     0.899460000000     0.773340000000     0.0421746  
H355     H      0.176070000000     0.844280000000     0.791390000000     0.0424917  
H356     H      0.149090000000     0.871510000000     0.904660000000     0.0429729  
H357     H      0.119190000000     0.122750000000     0.843100000000     0.0430406  
H358     H      0.090760000000     0.096200000000     0.729990000000     0.0431476  
H359     H      0.146080000000     0.151160000000     0.711690000000     0.0430375  
H360     H      0.174760000000     0.177530000000     0.824800000000     0.0428436  
H361     H      0.080730000000     0.001130000000     0.716380000000     0.0252907  
H362     H      0.937780000000     0.000500000000     0.716430000000     0.0251143  
H363     H      0.937650000000     0.020190000000     0.651280000000     0.0252904  
H364     H      0.080600000000     0.020820000000     0.651220000000     0.0255646  
H365     H      0.007750000000     0.076580000000     0.473670000000     0.0255549  
H366     H      0.009530000000     0.934170000000     0.460520000000     0.0182882  
H367     H      0.009840000000     0.944370000000     0.894020000000     0.0257958  
H368     H      0.008110000000     0.086770000000     0.907170000000     0.019095   
H369     H      0.899510000000     0.124720000000     0.594120000000     0.0424203  
H370     H      0.921690000000     0.091200000000     0.481250000000     0.0429333  
H371     H      0.867320000000     0.146750000000     0.462670000000     0.0421305  
H372     H      0.844590000000     0.180010000000     0.575480000000     0.0427912  
H373     H      0.928740000000     0.923510000000     0.637470000000     0.0427309  
H374     H      0.897110000000     0.901090000000     0.524320000000     0.0429475  
H375     H      0.841280000000     0.846660000000     0.542280000000     0.0426609  
H376     H      0.873190000000     0.868490000000     0.655480000000     0.0429105  
H377     H      0.089080000000     0.923300000000     0.637600000000     0.0429183  
H378     H      0.120540000000     0.901040000000     0.524420000000     0.0429043  
H379     H      0.176530000000     0.846680000000     0.542280000000     0.0426745  
H380     H      0.144750000000     0.868380000000     0.655520000000     0.042967   
H381     H      0.121920000000     0.120810000000     0.593280000000     0.0422082  
H382     H      0.093210000000     0.093170000000     0.480350000000     0.0425057  
H383     H      0.148070000000     0.148210000000     0.461590000000     0.0423774  
H384     H      0.177400000000     0.175290000000     0.574510000000     0.0424675  
O1       O      0.053870000000     0.066860000000     0.081270000000    -0.450803   
O2       O      0.963740000000     0.977460000000     0.093640000000    -0.467741   
O3       O      0.054140000000     0.977420000000     0.093890000000    -0.467605   
O4       O      0.964470000000     0.067410000000     0.081860000000    -0.450441   
O5       O      0.961480000000     0.042820000000     0.025480000000    -0.474661   
O6       O      0.052190000000     0.954340000000     0.036890000000    -0.445821   
O7       O      0.965310000000     0.954340000000     0.036640000000    -0.446912   
O8       O      0.056020000000     0.042520000000     0.024780000000    -0.475415   
O9       O      0.052660000000     0.066890000000     0.330940000000    -0.443343   
O10      O      0.962180000000     0.977830000000     0.342500000000    -0.471764   
O11      O      0.056690000000     0.978330000000     0.342540000000    -0.472481   
O12      O      0.965520000000     0.066530000000     0.331020000000    -0.444301   
O13      O      0.963800000000     0.043450000000     0.274050000000    -0.468277   
O14      O      0.053960000000     0.954120000000     0.286020000000    -0.451555   
O15      O      0.964730000000     0.953870000000     0.285920000000    -0.450294   
O16      O      0.054360000000     0.043920000000     0.273930000000    -0.467398   
O17      O      0.315530000000     0.217080000000     0.017460000000    -0.442792   
O18      O      0.226750000000     0.307830000000     0.029200000000    -0.472191   
O19      O      0.227530000000     0.212990000000     0.029900000000    -0.473637   
O20      O      0.315420000000     0.304120000000     0.017840000000    -0.445203   
O21      O      0.291650000000     0.305850000000     0.961050000000    -0.468856   
O22      O      0.202700000000     0.215470000000     0.973550000000    -0.45085    
O23      O      0.201870000000     0.304670000000     0.972910000000    -0.449907   
O24      O      0.291830000000     0.215010000000     0.960660000000    -0.467428   
O25      O      0.316280000000     0.214890000000     0.268450000000    -0.450527   
O26      O      0.227170000000     0.305150000000     0.280940000000    -0.468592   
O27      O      0.226560000000     0.214340000000     0.280610000000    -0.466296   
O28      O      0.316550000000     0.304180000000     0.268290000000    -0.448546   
O29      O      0.291610000000     0.307160000000     0.212020000000    -0.473163   
O30      O      0.202870000000     0.216640000000     0.223810000000    -0.444436   
O31      O      0.203540000000     0.303560000000     0.224110000000    -0.445624   
O32      O      0.291270000000     0.212260000000     0.212180000000    -0.474614   
O33      O      0.315880000000     0.804310000000     0.095860000000    -0.445239   
O34      O      0.227460000000     0.713200000000     0.085370000000    -0.469686   
O35      O      0.226690000000     0.807750000000     0.086090000000    -0.468202   
O36      O      0.316040000000     0.717090000000     0.096230000000    -0.443398   
O37      O      0.291580000000     0.713130000000     0.152640000000    -0.469216   
O38      O      0.202360000000     0.803670000000     0.142550000000    -0.444867   
O39      O      0.203100000000     0.716570000000     0.141860000000    -0.445626   
O40      O      0.291440000000     0.807740000000     0.152320000000    -0.470579   
O41      O      0.316090000000     0.803150000000     0.346230000000    -0.442806   
O42      O      0.226780000000     0.712430000000     0.336040000000    -0.468059   
O43      O      0.227520000000     0.807020000000     0.335380000000    -0.469565   
O44      O      0.315910000000     0.715860000000     0.345930000000    -0.445116   
O45      O      0.291360000000     0.712380000000     0.402360000000    -0.470452   
O46      O      0.203120000000     0.803660000000     0.391860000000    -0.44554    
O47      O      0.202340000000     0.716470000000     0.392460000000    -0.444405   
O48      O      0.291600000000     0.807000000000     0.402640000000    -0.46893    
O49      O      0.464180000000     0.954730000000     0.952970000000    -0.450723   
O50      O      0.554280000000     0.043770000000     0.966340000000    -0.471192   
O51      O      0.463750000000     0.044170000000     0.966380000000    -0.470309   
O52      O      0.553490000000     0.954600000000     0.952930000000    -0.449824   
O53      O      0.554100000000     0.977330000000     0.395870000000    -0.469388   
O54      O      0.464280000000     0.066970000000     0.409350000000    -0.448624   
O55      O      0.553700000000     0.066690000000     0.409350000000    -0.449399   
O56      O      0.463600000000     0.977480000000     0.395920000000    -0.470258   
O57      O      0.464730000000     0.954250000000     0.202870000000    -0.453249   
O58      O      0.554580000000     0.043280000000     0.216220000000    -0.47425    
O59      O      0.464200000000     0.043210000000     0.216620000000    -0.475836   
O60      O      0.553880000000     0.954270000000     0.203030000000    -0.454306   
O61      O      0.554290000000     0.977290000000     0.146030000000    -0.473788   
O62      O      0.464250000000     0.066190000000     0.159620000000    -0.452389   
O63      O      0.553630000000     0.066620000000     0.159320000000    -0.452125   
O64      O      0.464000000000     0.977250000000     0.145860000000    -0.473042   
O65      O      0.815020000000     0.716620000000     0.141850000000    -0.446537   
O66      O      0.726730000000     0.807720000000     0.152280000000    -0.471702   
O67      O      0.726590000000     0.713150000000     0.152620000000    -0.470152   
O68      O      0.815720000000     0.803670000000     0.142550000000    -0.445622   
O69      O      0.791320000000     0.807720000000     0.086110000000    -0.469243   
O70      O      0.702040000000     0.717110000000     0.096220000000    -0.444117   
O71      O      0.702210000000     0.804290000000     0.095840000000    -0.446185   
O72      O      0.790550000000     0.713200000000     0.085390000000    -0.470776   
O73      O      0.815740000000     0.716390000000     0.392510000000    -0.443616   
O74      O      0.726520000000     0.807080000000     0.402670000000    -0.467936   
O75      O      0.726640000000     0.712410000000     0.402350000000    -0.469407   
O76      O      0.815090000000     0.803590000000     0.391820000000    -0.444517   
O77      O      0.790710000000     0.807020000000     0.335340000000    -0.468344   
O78      O      0.702200000000     0.715850000000     0.345900000000    -0.444116   
O79      O      0.702060000000     0.803190000000     0.346260000000    -0.442273   
O80      O      0.791420000000     0.712400000000     0.336050000000    -0.466828   
O81      O      0.815150000000     0.304780000000     0.973890000000    -0.451072   
O82      O      0.725740000000     0.215040000000     0.960560000000    -0.471825   
O83      O      0.725910000000     0.305770000000     0.960800000000    -0.473323   
O84      O      0.814530000000     0.215470000000     0.974260000000    -0.452374   
O85      O      0.791670000000     0.215170000000     0.031270000000    -0.473292   
O86      O      0.702870000000     0.305270000000     0.017760000000    -0.452039   
O87      O      0.702740000000     0.215870000000     0.017520000000    -0.449906   
O88      O      0.792140000000     0.305840000000     0.030860000000    -0.470696   
O89      O      0.814430000000     0.304700000000     0.224180000000    -0.452419   
O90      O      0.725790000000     0.214430000000     0.210780000000    -0.473463   
O91      O      0.725640000000     0.305150000000     0.210560000000    -0.472061   
O92      O      0.815040000000     0.215400000000     0.223890000000    -0.451299   
O93      O      0.792040000000     0.214350000000     0.280860000000    -0.470828   
O94      O      0.702640000000     0.304320000000     0.267520000000    -0.449928   
O95      O      0.702770000000     0.214920000000     0.267740000000    -0.451725   
O96      O      0.791580000000     0.305050000000     0.281190000000    -0.473065   
O97      O      0.553440000000     0.565530000000     0.952940000000    -0.452097   
O98      O      0.463810000000     0.476120000000     0.966380000000    -0.472822   
O99      O      0.554270000000     0.476540000000     0.966320000000    -0.473634   
O100     O      0.464210000000     0.565380000000     0.952990000000    -0.453074   
O101     O      0.463610000000     0.542470000000     0.395990000000    -0.473092   
O102     O      0.553640000000     0.453450000000     0.409360000000    -0.451582   
O103     O      0.464330000000     0.453180000000     0.409390000000    -0.45066    
O104     O      0.554040000000     0.542650000000     0.395930000000    -0.472106   
O105     O      0.553900000000     0.565990000000     0.203060000000    -0.452322   
O106     O      0.464190000000     0.476850000000     0.216710000000    -0.473538   
O107     O      0.554630000000     0.476810000000     0.216290000000    -0.472104   
O108     O      0.464680000000     0.565980000000     0.202880000000    -0.451458   
O109     O      0.463940000000     0.543140000000     0.145850000000    -0.470748   
O110     O      0.553730000000     0.453670000000     0.159360000000    -0.450365   
O111     O      0.464270000000     0.454010000000     0.159700000000    -0.450403   
O112     O      0.554320000000     0.543150000000     0.146020000000    -0.471074   
O113     O      0.965470000000     0.453820000000     0.081020000000    -0.444781   
O114     O      0.056250000000     0.542390000000     0.092550000000    -0.472895   
O115     O      0.961910000000     0.542610000000     0.092360000000    -0.473344   
O116     O      0.052690000000     0.454090000000     0.080570000000    -0.445022   
O117     O      0.053930000000     0.477180000000     0.023570000000    -0.470369   
O118     O      0.964200000000     0.566690000000     0.035770000000    -0.452494   
O119     O      0.053370000000     0.566690000000     0.036050000000    -0.451917   
O120     O      0.963460000000     0.477110000000     0.024090000000    -0.468784   
O121     O      0.964510000000     0.452670000000     0.331660000000    -0.44966    
O122     O      0.054550000000     0.542300000000     0.343690000000    -0.467385   
O123     O      0.964010000000     0.542400000000     0.343800000000    -0.46622    
O124     O      0.053840000000     0.452430000000     0.331670000000    -0.449142   
O125     O      0.056330000000     0.476620000000     0.275140000000    -0.472777   
O126     O      0.965730000000     0.565380000000     0.286770000000    -0.444515   
O127     O      0.052790000000     0.565280000000     0.286670000000    -0.445761   
O128     O      0.961870000000     0.477030000000     0.275180000000    -0.47338    
O129     O      0.053870000000     0.066860000000     0.581270000000    -0.450844   
O130     O      0.963750000000     0.977460000000     0.593640000000    -0.467881   
O131     O      0.054140000000     0.977420000000     0.593900000000    -0.467483   
O132     O      0.964480000000     0.067410000000     0.581860000000    -0.450513   
O133     O      0.961480000000     0.042820000000     0.525480000000    -0.47472    
O134     O      0.052190000000     0.954340000000     0.536890000000    -0.445688   
O135     O      0.965310000000     0.954340000000     0.536640000000    -0.446858   
O136     O      0.056020000000     0.042520000000     0.524780000000    -0.475479   
O137     O      0.052660000000     0.066890000000     0.830940000000    -0.44332    
O138     O      0.962170000000     0.977830000000     0.842500000000    -0.471711   
O139     O      0.056690000000     0.978330000000     0.842540000000    -0.47247    
O140     O      0.965520000000     0.066530000000     0.831020000000    -0.444283   
O141     O      0.963800000000     0.043450000000     0.774050000000    -0.468274   
O142     O      0.053960000000     0.954120000000     0.786020000000    -0.451553   
O143     O      0.964730000000     0.953870000000     0.785920000000    -0.450302   
O144     O      0.054360000000     0.043920000000     0.773930000000    -0.46739    
O145     O      0.315530000000     0.217080000000     0.517460000000    -0.442863   
O146     O      0.226750000000     0.307830000000     0.529200000000    -0.47227    
O147     O      0.227530000000     0.212990000000     0.529900000000    -0.473728   
O148     O      0.315420000000     0.304120000000     0.517850000000    -0.44513    
O149     O      0.291650000000     0.305850000000     0.461060000000    -0.468921   
O150     O      0.202700000000     0.215470000000     0.473560000000    -0.450983   
O151     O      0.201870000000     0.304660000000     0.472920000000    -0.450065   
O152     O      0.291830000000     0.215000000000     0.460670000000    -0.467518   
O153     O      0.316280000000     0.214890000000     0.768450000000    -0.450482   
O154     O      0.227170000000     0.305150000000     0.780950000000    -0.468562   
O155     O      0.226560000000     0.214340000000     0.780610000000    -0.466332   
O156     O      0.316550000000     0.304180000000     0.768300000000    -0.448408   
O157     O      0.291610000000     0.307160000000     0.712020000000    -0.473179   
O158     O      0.202880000000     0.216640000000     0.723810000000    -0.44434    
O159     O      0.203540000000     0.303560000000     0.724110000000    -0.445438   
O160     O      0.291270000000     0.212260000000     0.712180000000    -0.474584   
O161     O      0.315880000000     0.804310000000     0.595860000000    -0.445237   
O162     O      0.227460000000     0.713200000000     0.585370000000    -0.46969    
O163     O      0.226690000000     0.807750000000     0.586090000000    -0.468205   
O164     O      0.316040000000     0.717090000000     0.596230000000    -0.443402   
O165     O      0.291580000000     0.713130000000     0.652640000000    -0.469223   
O166     O      0.202360000000     0.803670000000     0.642550000000    -0.44487    
O167     O      0.203100000000     0.716570000000     0.641860000000    -0.445631   
O168     O      0.291440000000     0.807740000000     0.652320000000    -0.470577   
O169     O      0.316090000000     0.803150000000     0.846230000000    -0.442804   
O170     O      0.226780000000     0.712430000000     0.836040000000    -0.468059   
O171     O      0.227520000000     0.807020000000     0.835380000000    -0.469566   
O172     O      0.315910000000     0.715860000000     0.845930000000    -0.445115   
O173     O      0.291360000000     0.712380000000     0.902360000000    -0.47045    
O174     O      0.203120000000     0.803660000000     0.891860000000    -0.445542   
O175     O      0.202340000000     0.716470000000     0.892460000000    -0.444404   
O176     O      0.291600000000     0.807000000000     0.902640000000    -0.468928   
O177     O      0.464180000000     0.954730000000     0.452970000000    -0.450703   
O178     O      0.554280000000     0.043770000000     0.466350000000    -0.471122   
O179     O      0.463750000000     0.044170000000     0.466380000000    -0.470317   
O180     O      0.553490000000     0.954600000000     0.452930000000    -0.449817   
O181     O      0.554100000000     0.977330000000     0.895870000000    -0.469429   
O182     O      0.464290000000     0.066960000000     0.909350000000    -0.448728   
O183     O      0.553700000000     0.066690000000     0.909350000000    -0.449566   
O184     O      0.463600000000     0.977480000000     0.895920000000    -0.470304   
O185     O      0.464720000000     0.954250000000     0.702870000000    -0.453272   
O186     O      0.554580000000     0.043280000000     0.716220000000    -0.474226   
O187     O      0.464200000000     0.043210000000     0.716620000000    -0.4758     
O188     O      0.553880000000     0.954270000000     0.703030000000    -0.454292   
O189     O      0.554290000000     0.977290000000     0.646030000000    -0.473759   
O190     O      0.464250000000     0.066190000000     0.659620000000    -0.452364   
O191     O      0.553630000000     0.066620000000     0.659320000000    -0.452108   
O192     O      0.463990000000     0.977250000000     0.645870000000    -0.473136   
O193     O      0.815020000000     0.716620000000     0.641850000000    -0.446535   
O194     O      0.726730000000     0.807720000000     0.652280000000    -0.471756   
O195     O      0.726590000000     0.713150000000     0.652620000000    -0.470134   
O196     O      0.815720000000     0.803670000000     0.642550000000    -0.445588   
O197     O      0.791310000000     0.807720000000     0.586110000000    -0.469233   
O198     O      0.702040000000     0.717110000000     0.596220000000    -0.444111   
O199     O      0.702210000000     0.804290000000     0.595840000000    -0.446198   
O200     O      0.790550000000     0.713200000000     0.585390000000    -0.470788   
O201     O      0.815740000000     0.716390000000     0.892510000000    -0.44365    
O202     O      0.726520000000     0.807080000000     0.902670000000    -0.467936   
O203     O      0.726640000000     0.712410000000     0.902350000000    -0.469409   
O204     O      0.815090000000     0.803590000000     0.891820000000    -0.444516   
O205     O      0.790710000000     0.807020000000     0.835340000000    -0.468329   
O206     O      0.702200000000     0.715850000000     0.845900000000    -0.444111   
O207     O      0.702060000000     0.803190000000     0.846260000000    -0.442261   
O208     O      0.791430000000     0.712400000000     0.836050000000    -0.466842   
O209     O      0.815150000000     0.304770000000     0.473890000000    -0.451068   
O210     O      0.725740000000     0.215030000000     0.460570000000    -0.471921   
O211     O      0.725910000000     0.305780000000     0.460800000000    -0.473365   
O212     O      0.814530000000     0.215470000000     0.474260000000    -0.452276   
O213     O      0.791670000000     0.215170000000     0.531270000000    -0.473394   
O214     O      0.702870000000     0.305270000000     0.517760000000    -0.452081   
O215     O      0.702730000000     0.215870000000     0.517520000000    -0.449912   
O216     O      0.792130000000     0.305840000000     0.530860000000    -0.470693   
O217     O      0.814430000000     0.304700000000     0.724180000000    -0.452261   
O218     O      0.725790000000     0.214430000000     0.710780000000    -0.473275   
O219     O      0.725640000000     0.305150000000     0.710570000000    -0.472093   
O220     O      0.815030000000     0.215400000000     0.723890000000    -0.451346   
O221     O      0.792040000000     0.214350000000     0.780860000000    -0.470802   
O222     O      0.702640000000     0.304320000000     0.767530000000    -0.449805   
O223     O      0.702770000000     0.214920000000     0.767750000000    -0.451528   
O224     O      0.791580000000     0.305050000000     0.781200000000    -0.472973   
O225     O      0.553440000000     0.565530000000     0.452940000000    -0.452121   
O226     O      0.463810000000     0.476120000000     0.466380000000    -0.472835   
O227     O      0.554260000000     0.476540000000     0.466320000000    -0.473765   
O228     O      0.464220000000     0.565380000000     0.452990000000    -0.453129   
O229     O      0.463610000000     0.542470000000     0.895990000000    -0.473089   
O230     O      0.553640000000     0.453450000000     0.909360000000    -0.451685   
O231     O      0.464320000000     0.453180000000     0.909390000000    -0.450627   
O232     O      0.554040000000     0.542650000000     0.895930000000    -0.472093   
O233     O      0.553900000000     0.565990000000     0.703060000000    -0.452318   
O234     O      0.464190000000     0.476850000000     0.716720000000    -0.473383   
O235     O      0.554630000000     0.476810000000     0.716290000000    -0.47208    
O236     O      0.464680000000     0.565980000000     0.702880000000    -0.451456   
O237     O      0.463940000000     0.543140000000     0.645850000000    -0.470764   
O238     O      0.553720000000     0.453670000000     0.659360000000    -0.450394   
O239     O      0.464270000000     0.454010000000     0.659700000000    -0.450348   
O240     O      0.554320000000     0.543150000000     0.646020000000    -0.471089   
O241     O      0.965470000000     0.453820000000     0.581020000000    -0.444712   
O242     O      0.056260000000     0.542390000000     0.592550000000    -0.472835   
O243     O      0.961910000000     0.542610000000     0.592360000000    -0.473296   
O244     O      0.052690000000     0.454090000000     0.580570000000    -0.444998   
O245     O      0.053930000000     0.477180000000     0.523570000000    -0.470357   
O246     O      0.964200000000     0.566690000000     0.535770000000    -0.45245    
O247     O      0.053370000000     0.566690000000     0.536050000000    -0.451921   
O248     O      0.963460000000     0.477110000000     0.524090000000    -0.468731   
O249     O      0.964510000000     0.452670000000     0.831660000000    -0.449654   
O250     O      0.054550000000     0.542300000000     0.843690000000    -0.467369   
O251     O      0.964010000000     0.542410000000     0.843800000000    -0.46623    
O252     O      0.053840000000     0.452430000000     0.831670000000    -0.449189   
O253     O      0.056330000000     0.476620000000     0.775150000000    -0.472933   
O254     O      0.965730000000     0.565380000000     0.786770000000    -0.444559   
O255     O      0.052790000000     0.565280000000     0.786670000000    -0.445767   
O256     O      0.961870000000     0.477030000000     0.775180000000    -0.473391   


