data_structure

_audit_creation_method RASPA-1.0
_audit_creation_date 2023-5-22
_audit_author_name 'Poobodin Mano'

_cell_length_a    33.2358
_cell_length_b    33.2372
_cell_length_c    44.44
_cell_angle_alpha 90
_cell_angle_beta  90
_cell_angle_gamma 90
_cell_volume      49091.3

_symmetry_cell_setting          triclinic
_symmetry_space_group_name_Hall 'P 1'
_symmetry_space_group_name_H-M  'P 1'
_symmetry_Int_Tables_number     1

_symmetry_equiv_pos_as_xyz 'x,y,z'

loop_
_atom_site_label
_atom_site_type_symbol
_atom_site_fract_x
_atom_site_fract_y
_atom_site_fract_z
_atom_site_charge
C1       C      0.416980000000     0.829200000000     0.496240000000     0.349633   
C2       C      0.576610000000     0.828770000000     0.997500000000     0.350299   
C3       C      0.497600000000     0.829030000000     0.437050000000     0.348537   
C4       C      0.495960000000     0.829030000000     0.056670000000     0.347888   
C5       C      0.416750000000     0.829220000000     0.247680000000     0.349636   
C6       C      0.576380000000     0.829110000000     0.245910000000     0.349649   
C7       C      0.495550000000     0.829130000000     0.187040000000     0.348899   
C8       C      0.497610000000     0.829130000000     0.306660000000     0.348609   
C9       C      0.829580000000     0.575870000000     0.997050000000     0.350307   
C10      C      0.829580000000     0.416240000000     0.496150000000     0.349787   
C11      C      0.828950000000     0.495540000000     0.056490000000     0.348055   
C12      C      0.830250000000     0.496550000000     0.436870000000     0.34866    
C13      C      0.829530000000     0.575780000000     0.246500000000     0.349837   
C14      C      0.829690000000     0.416120000000     0.246950000000     0.3497     
C15      C      0.830390000000     0.496270000000     0.306510000000     0.348693   
C16      C      0.828830000000     0.495630000000     0.186880000000     0.348466   
C17      C      0.576510000000     0.163320000000     0.492550000000     0.349657   
C18      C      0.416870000000     0.163010000000     0.492670000000     0.349721   
C19      C      0.496710000000     0.163140000000     0.052390000000     0.348031   
C20      C      0.496670000000     0.163140000000     0.432770000000     0.348533   
C21      C      0.416830000000     0.163320000000     0.242820000000     0.349616   
C22      C      0.576480000000     0.162850000000     0.242470000000     0.349672   
C23      C      0.496490000000     0.163090000000     0.182770000000     0.348641   
C24      C      0.496830000000     0.163090000000     0.302400000000     0.34879    
C25      C      0.163640000000     0.576040000000     0.493610000000     0.349595   
C26      C      0.163640000000     0.416400000000     0.494870000000     0.349832   
C27      C      0.163670000000     0.496940000000     0.054020000000     0.348127   
C28      C      0.163660000000     0.495490000000     0.434400000000     0.348643   
C29      C      0.163570000000     0.575920000000     0.244590000000     0.349848   
C30      C      0.163950000000     0.416290000000     0.243830000000     0.349677   
C31      C      0.163720000000     0.495600000000     0.304010000000     0.348433   
C32      C      0.163730000000     0.496630000000     0.184390000000     0.348703   
C33      C      0.829710000000     0.749090000000     0.996390000000     0.345595   
C34      C      0.829500000000     0.908900000000     0.995290000000     0.345488   
C35      C      0.749820000000     0.828750000000     0.996910000000     0.345837   
C36      C      0.909610000000     0.829010000000     0.994600000000     0.345427   
C37      C      0.829340000000     0.748990000000     0.245610000000     0.349174   
C38      C      0.829520000000     0.908780000000     0.244250000000     0.348914   
C39      C      0.749600000000     0.828970000000     0.244590000000     0.349378   
C40      C      0.909400000000     0.828690000000     0.245290000000     0.348804   
C41      C      0.829490000000     0.243040000000     0.494920000000     0.349346   
C42      C      0.829480000000     0.083230000000     0.495030000000     0.349003   
C43      C      0.749710000000     0.163290000000     0.493900000000     0.349362   
C44      C      0.909510000000     0.163220000000     0.496000000000     0.34902    
C45      C      0.829520000000     0.242890000000     0.246200000000     0.349121   
C46      C      0.829570000000     0.083110000000     0.244500000000     0.348875   
C47      C      0.749720000000     0.163000000000     0.244120000000     0.34939    
C48      C      0.909490000000     0.163140000000     0.246510000000     0.348978   
C49      C      0.163910000000     0.083380000000     0.495140000000     0.349036   
C50      C      0.163730000000     0.243170000000     0.495710000000     0.349293   
C51      C      0.083860000000     0.163290000000     0.496280000000     0.349174   
C52      C      0.243640000000     0.163360000000     0.494450000000     0.349142   
C53      C      0.163920000000     0.243080000000     0.244950000000     0.349407   
C54      C      0.163780000000     0.083290000000     0.247160000000     0.349061   
C55      C      0.243640000000     0.163240000000     0.245010000000     0.349636   
C56      C      0.083840000000     0.163330000000     0.246950000000     0.349131   
C57      C      0.163840000000     0.749270000000     0.493570000000     0.349229   
C58      C      0.163980000000     0.909060000000     0.494560000000     0.349138   
C59      C      0.243750000000     0.829080000000     0.494710000000     0.349216   
C60      C      0.083950000000     0.829130000000     0.493610000000     0.348783   
C61      C      0.163730000000     0.749150000000     0.246190000000     0.349379   
C62      C      0.163630000000     0.908940000000     0.247710000000     0.34882    
C63      C      0.243510000000     0.829080000000     0.247710000000     0.349247   
C64      C      0.083720000000     0.828870000000     0.246320000000     0.349106   
C65      C      0.164370000000     0.017320000000     0.274870000000    -0.00499942 
C66      C      0.163750000000     0.038680000000     0.247550000000    -0.0815699  
C67      C      0.163090000000     0.016960000000     0.220410000000    -0.00518828 
C68      C      0.163050000000     0.974960000000     0.220540000000    -0.00524974 
C69      C      0.163660000000     0.953550000000     0.247820000000    -0.0814724  
C70      C      0.164320000000     0.975210000000     0.275000000000    -0.00507998 
C71      C      0.163890000000     0.017410000000     0.467700000000    -0.00511801 
C72      C      0.163960000000     0.038780000000     0.495000000000    -0.0816053  
C73      C      0.164080000000     0.017080000000     0.022170000000    -0.00171286 
C74      C      0.164120000000     0.975030000000     0.022050000000    -0.00173588 
C75      C      0.164000000000     0.953660000000     0.494750000000    -0.0816802  
C76      C      0.163890000000     0.975360000000     0.467580000000    -0.00503345 
C77      C      0.975480000000     0.163880000000     0.274210000000    -0.00502466 
C78      C      0.954100000000     0.163210000000     0.246900000000    -0.0815569  
C79      C      0.975790000000     0.162610000000     0.219750000000    -0.00518899 
C80      C      0.017780000000     0.162660000000     0.219860000000    -0.00517533 
C81      C      0.039230000000     0.163320000000     0.247130000000    -0.0815638  
C82      C      0.017600000000     0.163940000000     0.274330000000    -0.00512068 
C83      C      0.017660000000     0.163780000000     0.023690000000    -0.00164346 
C84      C      0.039250000000     0.163280000000     0.496470000000    -0.0816534  
C85      C      0.017760000000     0.162760000000     0.469230000000    -0.00508481 
C86      C      0.975760000000     0.162740000000     0.469150000000    -0.00526852 
C87      C      0.954110000000     0.163230000000     0.496330000000    -0.0815876  
C88      C      0.975550000000     0.163750000000     0.023620000000    -0.00161896 
C89      C      0.975820000000     0.828730000000     0.218410000000    -0.00523635 
C90      C      0.954000000000     0.828680000000     0.245530000000    -0.0815573  
C91      C      0.975250000000     0.828660000000     0.272880000000    -0.00505249 
C92      C      0.017290000000     0.828730000000     0.273120000000    -0.00510585 
C93      C      0.039120000000     0.828790000000     0.246000000000    -0.0816682  
C94      C      0.017880000000     0.828760000000     0.218650000000    -0.00504943 
C95      C      0.830210000000     0.974870000000     0.271350000000    -0.00522867 
C96      C      0.829550000000     0.953380000000     0.244110000000    -0.0815826  
C97      C      0.828900000000     0.974960000000     0.216890000000    -0.00505571 
C98      C      0.828910000000     0.017060000000     0.216950000000    -0.00499912 
C99      C      0.829570000000     0.038510000000     0.244230000000    -0.0815921  
C100     C      0.830210000000     0.016880000000     0.271410000000    -0.00521826 
C101     C      0.018050000000     0.829680000000     0.020970000000    -0.00180262 
C102     C      0.039340000000     0.829100000000     0.493630000000    -0.0814495  
C103     C      0.017550000000     0.828490000000     0.466500000000    -0.00519277 
C104     C      0.975450000000     0.828470000000     0.466760000000    -0.00490386 
C105     C      0.954210000000     0.829040000000     0.994130000000    -0.0848118  
C106     C      0.976050000000     0.829650000000     0.021220000000    -0.00183488 
C107     C      0.829390000000     0.974960000000     0.467880000000    -0.00508008 
C108     C      0.829440000000     0.953500000000     0.995140000000    -0.0848281  
C109     C      0.829470000000     0.975120000000     0.022350000000    -0.00158665 
C110     C      0.829450000000     0.017160000000     0.022310000000    -0.00167086 
C111     C      0.829440000000     0.038630000000     0.495060000000    -0.0815877  
C112     C      0.829410000000     0.017020000000     0.467840000000    -0.00518271 
C113     C      0.137260000000     0.641230000000     0.264020000000    -0.00342876 
C114     C      0.163500000000     0.620200000000     0.244910000000    -0.08222    
C115     C      0.189780000000     0.641800000000     0.226180000000    -0.00346757 
C116     C      0.189340000000     0.683860000000     0.226200000000    -0.0038098  
C117     C      0.163630000000     0.704880000000     0.245720000000    -0.0821604  
C118     C      0.137820000000     0.683270000000     0.264810000000    -0.00362041 
C119     C      0.138150000000     0.350490000000     0.224870000000    -0.00341505 
C120     C      0.164100000000     0.372010000000     0.243900000000    -0.0819176  
C121     C      0.190130000000     0.350910000000     0.263130000000    -0.00360418 
C122     C      0.189630000000     0.308870000000     0.263760000000    -0.00334134 
C123     C      0.164130000000     0.287340000000     0.244410000000    -0.0821026  
C124     C      0.138680000000     0.308420000000     0.224730000000    -0.00330921 
C125     C      0.189850000000     0.641590000000     0.474460000000    -0.00352207 
C126     C      0.163590000000     0.620320000000     0.493430000000    -0.0820923  
C127     C      0.137310000000     0.641670000000     0.012300000000     0.00088799 
C128     C      0.137830000000     0.683720000000     0.012640000000    -0.000478511
C129     C      0.163630000000     0.705000000000     0.493340000000    -0.0821446  
C130     C      0.189360000000     0.683660000000     0.474040000000    -0.00375531 
C131     C      0.189880000000     0.351000000000     0.514260000000    -0.00342927 
C132     C      0.163580000000     0.372130000000     0.495240000000    -0.0822653  
C133     C      0.137180000000     0.350630000000     0.976550000000    -0.00266778 
C134     C      0.137650000000     0.308580000000     0.976430000000    -0.0039143  
C135     C      0.163500000000     0.287450000000     0.495780000000    -0.0821182  
C136     C      0.189340000000     0.308930000000     0.514910000000    -0.00386317 
C137     C      0.127270000000     0.495260000000     0.384920000000    -0.00521157 
C138     C      0.163670000000     0.495300000000     0.401040000000    -0.081777   
C139     C      0.200100000000     0.495320000000     0.384940000000    -0.00531125 
C140     C      0.200120000000     0.495390000000     0.353490000000    -0.00544634 
C141     C      0.163710000000     0.495390000000     0.337370000000    -0.0816328  
C142     C      0.127280000000     0.495270000000     0.353470000000    -0.00539118 
C143     C      0.200110000000     0.497130000000     0.103470000000    -0.0053961  
C144     C      0.163680000000     0.497080000000     0.087370000000    -0.0810852  
C145     C      0.127270000000     0.497010000000     0.103490000000    -0.0054049  
C146     C      0.127290000000     0.496940000000     0.134940000000    -0.00506433 
C147     C      0.163710000000     0.496880000000     0.151030000000    -0.0817549  
C148     C      0.200120000000     0.497000000000     0.134920000000    -0.0050466  
C149     C      0.350830000000     0.137450000000     0.224380000000    -0.0034837  
C150     C      0.372560000000     0.163420000000     0.243260000000    -0.0819054  
C151     C      0.351680000000     0.189360000000     0.262690000000    -0.00362239 
C152     C      0.309640000000     0.188800000000     0.263630000000    -0.00325165 
C153     C      0.287900000000     0.163310000000     0.244400000000    -0.0822166  
C154     C      0.308770000000     0.137910000000     0.224560000000    -0.00318211 
C155     C      0.642370000000     0.189010000000     0.223970000000    -0.00340203 
C156     C      0.620770000000     0.162720000000     0.242680000000    -0.08206    
C157     C      0.641780000000     0.136420000000     0.261750000000    -0.00345503 
C158     C      0.683820000000     0.136950000000     0.262530000000    -0.0035555  
C159     C      0.705440000000     0.162800000000     0.243490000000    -0.0820134  
C160     C      0.684450000000     0.188550000000     0.223980000000    -0.00382862 
C161     C      0.350990000000     0.189170000000     0.474200000000    -0.00347696 
C162     C      0.372590000000     0.162960000000     0.492980000000    -0.0821326  
C163     C      0.351580000000     0.136840000000     0.012190000000     0.000950946
C164     C      0.309530000000     0.137460000000     0.013030000000    -0.00046824 
C165     C      0.287920000000     0.163200000000     0.493900000000    -0.0819853  
C166     C      0.308920000000     0.188770000000     0.474280000000    -0.00375235 
C167     C      0.641830000000     0.189240000000     0.012160000000     0.000822664
C168     C      0.620790000000     0.163440000000     0.492740000000    -0.0818655  
C169     C      0.642350000000     0.137690000000     0.473580000000    -0.00352832 
C170     C      0.684430000000     0.138230000000     0.473510000000    -0.00323421 
C171     C      0.705450000000     0.163460000000     0.493370000000    -0.0821311  
C172     C      0.683870000000     0.188730000000     0.012860000000    -0.00025455 
C173     C      0.495570000000     0.126720000000     0.383310000000    -0.00540859 
C174     C      0.496710000000     0.163130000000     0.399410000000    -0.0816616  
C175     C      0.497920000000     0.199520000000     0.383300000000    -0.00541397 
C176     C      0.497980000000     0.199500000000     0.351850000000    -0.00523296 
C177     C      0.496830000000     0.163100000000     0.335750000000    -0.0819607  
C178     C      0.495620000000     0.126710000000     0.351870000000    -0.00521752 
C179     C      0.497760000000     0.126720000000     0.101850000000    -0.0055036  
C180     C      0.496660000000     0.163130000000     0.085750000000    -0.0809414  
C181     C      0.495470000000     0.199520000000     0.101860000000    -0.00551641 
C182     C      0.495390000000     0.199500000000     0.133310000000    -0.00497733 
C183     C      0.496500000000     0.163100000000     0.149420000000    -0.0818758  
C184     C      0.497680000000     0.126710000000     0.133300000000    -0.0049982  
C185     C      0.856400000000     0.350640000000     0.228240000000    -0.00342801 
C186     C      0.829760000000     0.371840000000     0.246930000000    -0.0821283  
C187     C      0.803140000000     0.350410000000     0.265510000000    -0.00342689 
C188     C      0.803630000000     0.308340000000     0.265740000000    -0.00381761 
C189     C      0.829720000000     0.287160000000     0.246610000000    -0.0820209  
C190     C      0.855880000000     0.308600000000     0.227690000000    -0.00356916 
C191     C      0.803090000000     0.641500000000     0.265060000000    -0.00333354 
C192     C      0.829520000000     0.620050000000     0.246350000000    -0.082216   
C193     C      0.855940000000     0.641220000000     0.227470000000    -0.00330182 
C194     C      0.855410000000     0.683260000000     0.226890000000    -0.00352569 
C195     C      0.829470000000     0.704720000000     0.245960000000    -0.0819575  
C196     C      0.803570000000     0.683570000000     0.265260000000    -0.00385437 
C197     C      0.803340000000     0.350430000000     0.514570000000    -0.003584   
C198     C      0.829520000000     0.371970000000     0.495740000000    -0.0820245  
C199     C      0.855540000000     0.350900000000     0.976470000000    -0.00262574 
C200     C      0.854930000000     0.308840000000     0.975710000000    -0.00369649 
C201     C      0.829320000000     0.287310000000     0.494980000000    -0.0820709  
C202     C      0.803760000000     0.308380000000     0.514580000000    -0.0033485  
C203     C      0.803620000000     0.641350000000     0.477770000000    -0.00361088 
C204     C      0.829540000000     0.620150000000     0.997020000000    -0.086436   
C205     C      0.855450000000     0.641570000000     0.016150000000     0.000855275
C206     C      0.854950000000     0.683640000000     0.016380000000    -0.000230185
C207     C      0.829580000000     0.704820000000     0.996710000000    -0.0849026  
C208     C      0.804150000000     0.683400000000     0.477230000000    -0.00335564 
C209     C      0.866930000000     0.497180000000     0.387450000000    -0.00515788 
C210     C      0.830470000000     0.496630000000     0.403520000000    -0.0818067  
C211     C      0.794100000000     0.496030000000     0.387380000000    -0.00536494 
C212     C      0.794160000000     0.495960000000     0.355960000000    -0.00541271 
C213     C      0.830590000000     0.496440000000     0.339870000000    -0.0816785  
C214     C      0.866990000000     0.497070000000     0.355980000000    -0.00516382 
C215     C      0.792290000000     0.496010000000     0.105930000000    -0.00532972 
C216     C      0.828750000000     0.495410000000     0.089850000000    -0.0810338  
C217     C      0.865110000000     0.494780000000     0.105990000000    -0.00550769 
C218     C      0.865060000000     0.494830000000     0.137420000000    -0.00525295 
C219     C      0.828630000000     0.495480000000     0.153520000000    -0.0817155  
C220     C      0.792230000000     0.496030000000     0.137400000000    -0.00499801 
C221     C      0.351120000000     0.855680000000     0.229100000000    -0.00348586 
C222     C      0.372470000000     0.829310000000     0.247910000000    -0.0820935  
C223     C      0.351190000000     0.803020000000     0.266840000000    -0.00347943 
C224     C      0.309110000000     0.803530000000     0.267270000000    -0.00380808 
C225     C      0.287780000000     0.829330000000     0.248010000000    -0.0821227  
C226     C      0.309080000000     0.855190000000     0.228770000000    -0.00347526 
C227     C      0.642250000000     0.855580000000     0.263980000000    -0.0034508  
C228     C      0.620650000000     0.829170000000     0.245380000000    -0.0821914  
C229     C      0.641680000000     0.802890000000     0.226280000000    -0.00338553 
C230     C      0.683750000000     0.803440000000     0.225480000000    -0.00384001 
C231     C      0.705330000000     0.829270000000     0.244560000000    -0.0821479  
C232     C      0.684300000000     0.855130000000     0.263960000000    -0.00353549 
C233     C      0.351670000000     0.855450000000     0.476740000000    -0.00356676 
C234     C      0.372700000000     0.829250000000     0.495890000000    -0.0820943  
C235     C      0.351110000000     0.803010000000     0.014650000000     0.00084951 
C236     C      0.309050000000     0.803460000000     0.014650000000    -0.000682262
C237     C      0.288020000000     0.829130000000     0.495110000000    -0.0821945  
C238     C      0.309620000000     0.854880000000     0.475970000000    -0.00354642 
C239     C      0.642310000000     0.854470000000     0.016760000000     0.000835904
C240     C      0.620890000000     0.828590000000     0.997600000000    -0.0864264  
C241     C      0.642080000000     0.802560000000     0.478440000000    -0.00366122 
C242     C      0.684120000000     0.803020000000     0.477960000000    -0.003325   
C243     C      0.705560000000     0.828470000000     0.997410000000    -0.0850624  
C244     C      0.684390000000     0.853890000000     0.017050000000    -0.000151333
C245     C      0.498030000000     0.865490000000     0.387590000000    -0.00539115 
C246     C      0.497890000000     0.829060000000     0.403690000000    -0.0817185  
C247     C      0.497870000000     0.792650000000     0.387560000000    -0.00542947 
C248     C      0.497920000000     0.792680000000     0.356110000000    -0.00535328 
C249     C      0.497920000000     0.829110000000     0.340020000000    -0.0817883  
C250     C      0.498020000000     0.865510000000     0.356140000000    -0.0052876  
C251     C      0.495420000000     0.792650000000     0.106150000000    -0.00545346 
C252     C      0.495590000000     0.829050000000     0.090030000000    -0.0808296  
C253     C      0.495510000000     0.865490000000     0.106110000000    -0.00550651 
C254     C      0.495410000000     0.865510000000     0.137560000000    -0.00495046 
C255     C      0.495330000000     0.829110000000     0.153680000000    -0.0818453  
C256     C      0.495260000000     0.792680000000     0.137590000000    -0.00496328 
C257     C      0.416980000000     0.829200000000     0.996240000000     0.35037    
C258     C      0.576610000000     0.828770000000     0.497500000000     0.349579   
C259     C      0.497600000000     0.829030000000     0.937050000000     0.348343   
C260     C      0.495960000000     0.829030000000     0.556670000000     0.34846    
C261     C      0.416750000000     0.829220000000     0.747680000000     0.349645   
C262     C      0.576380000000     0.829110000000     0.745910000000     0.349655   
C263     C      0.495550000000     0.829130000000     0.687040000000     0.348846   
C264     C      0.497610000000     0.829130000000     0.806660000000     0.348616   
C265     C      0.829580000000     0.575870000000     0.497050000000     0.34957    
C266     C      0.829580000000     0.416240000000     0.996150000000     0.350527   
C267     C      0.828950000000     0.495540000000     0.556490000000     0.348598   
C268     C      0.830250000000     0.496550000000     0.936870000000     0.348437   
C269     C      0.829530000000     0.575780000000     0.746500000000     0.34984    
C270     C      0.829690000000     0.416120000000     0.746950000000     0.349689   
C271     C      0.830390000000     0.496270000000     0.806510000000     0.348702   
C272     C      0.828830000000     0.495630000000     0.686880000000     0.348414   
C273     C      0.576510000000     0.163320000000     0.992550000000     0.35041    
C274     C      0.416870000000     0.163010000000     0.992670000000     0.350455   
C275     C      0.496710000000     0.163140000000     0.552390000000     0.348606   
C276     C      0.496670000000     0.163140000000     0.932770000000     0.34834    
C277     C      0.416830000000     0.163320000000     0.742820000000     0.349632   
C278     C      0.576480000000     0.162850000000     0.742470000000     0.349674   
C279     C      0.496490000000     0.163090000000     0.682770000000     0.348593   
C280     C      0.496830000000     0.163090000000     0.802400000000     0.348728   
C281     C      0.163640000000     0.576040000000     0.993610000000     0.350342   
C282     C      0.163640000000     0.416400000000     0.994870000000     0.350576   
C283     C      0.163670000000     0.496940000000     0.554020000000     0.348702   
C284     C      0.163660000000     0.495490000000     0.934390000000     0.348326   
C285     C      0.163570000000     0.575920000000     0.744590000000     0.349865   
C286     C      0.163950000000     0.416290000000     0.743830000000     0.349664   
C287     C      0.163720000000     0.495600000000     0.804010000000     0.348439   
C288     C      0.163730000000     0.496630000000     0.684390000000     0.348648   
C289     C      0.829710000000     0.749090000000     0.496390000000     0.3494     
C290     C      0.829500000000     0.908900000000     0.495290000000     0.349213   
C291     C      0.749820000000     0.828750000000     0.496910000000     0.34939    
C292     C      0.909610000000     0.829010000000     0.494610000000     0.348906   
C293     C      0.829340000000     0.748990000000     0.745610000000     0.349184   
C294     C      0.829520000000     0.908780000000     0.744250000000     0.348934   
C295     C      0.749600000000     0.828970000000     0.744590000000     0.349395   
C296     C      0.909400000000     0.828690000000     0.745290000000     0.348817   
C297     C      0.829490000000     0.243040000000     0.994920000000     0.345505   
C298     C      0.829480000000     0.083230000000     0.995030000000     0.345305   
C299     C      0.749710000000     0.163290000000     0.993910000000     0.345509   
C300     C      0.909510000000     0.163220000000     0.996000000000     0.345325   
C301     C      0.829520000000     0.242890000000     0.746200000000     0.349657   
C302     C      0.829570000000     0.083110000000     0.744500000000     0.348888   
C303     C      0.749720000000     0.163000000000     0.744120000000     0.349409   
C304     C      0.909490000000     0.163140000000     0.746510000000     0.348997   
C305     C      0.163910000000     0.083380000000     0.995140000000     0.345319   
C306     C      0.163730000000     0.243170000000     0.995710000000     0.345468   
C307     C      0.083860000000     0.163290000000     0.996280000000     0.345467   
C308     C      0.243640000000     0.163360000000     0.994450000000     0.345556   
C309     C      0.163920000000     0.243080000000     0.744950000000     0.349419   
C310     C      0.163780000000     0.083290000000     0.747160000000     0.349081   
C311     C      0.243640000000     0.163240000000     0.745010000000     0.349382   
C312     C      0.083840000000     0.163330000000     0.746950000000     0.349141   
C313     C      0.163840000000     0.749270000000     0.993570000000     0.345374   
C314     C      0.163980000000     0.909060000000     0.994560000000     0.34543    
C315     C      0.243750000000     0.829080000000     0.994710000000     0.345647   
C316     C      0.083950000000     0.829130000000     0.993610000000     0.345305   
C317     C      0.163730000000     0.749150000000     0.746190000000     0.349392   
C318     C      0.163630000000     0.908940000000     0.747710000000     0.34882    
C319     C      0.243510000000     0.829080000000     0.747710000000     0.349513   
C320     C      0.083720000000     0.828870000000     0.746320000000     0.349121   
C321     C      0.164370000000     0.017320000000     0.774870000000    -0.00496627 
C322     C      0.163750000000     0.038680000000     0.747540000000    -0.081594   
C323     C      0.163090000000     0.016960000000     0.720410000000    -0.00514071 
C324     C      0.163050000000     0.974960000000     0.720540000000    -0.00528974 
C325     C      0.163660000000     0.953550000000     0.747820000000    -0.0814253  
C326     C      0.164320000000     0.975210000000     0.775010000000    -0.00515219 
C327     C      0.163890000000     0.017410000000     0.967700000000    -0.00494949 
C328     C      0.163960000000     0.038780000000     0.995000000000    -0.0847636  
C329     C      0.164080000000     0.017080000000     0.522170000000    -0.00515591 
C330     C      0.164120000000     0.975030000000     0.522050000000    -0.00509402 
C331     C      0.164000000000     0.953660000000     0.994750000000    -0.0847488  
C332     C      0.163890000000     0.975360000000     0.967580000000    -0.00495982 
C333     C      0.975480000000     0.163880000000     0.774210000000    -0.00501204 
C334     C      0.954100000000     0.163210000000     0.746900000000    -0.0815611  
C335     C      0.975790000000     0.162610000000     0.719750000000    -0.0051939  
C336     C      0.017780000000     0.162660000000     0.719860000000    -0.00518325 
C337     C      0.039230000000     0.163320000000     0.747130000000    -0.0815628  
C338     C      0.017600000000     0.163940000000     0.774330000000    -0.00511107 
C339     C      0.017660000000     0.163780000000     0.523690000000    -0.0050247  
C340     C      0.039250000000     0.163280000000     0.996470000000    -0.0847234  
C341     C      0.017760000000     0.162760000000     0.969230000000    -0.00496917 
C342     C      0.975760000000     0.162740000000     0.969150000000    -0.00513441 
C343     C      0.954110000000     0.163230000000     0.996330000000    -0.084688   
C344     C      0.975550000000     0.163750000000     0.523620000000    -0.00507379 
C345     C      0.975820000000     0.828730000000     0.718410000000    -0.00523987 
C346     C      0.954000000000     0.828680000000     0.745530000000    -0.0815574  
C347     C      0.975250000000     0.828660000000     0.772880000000    -0.00504406 
C348     C      0.017290000000     0.828730000000     0.773120000000    -0.00509652 
C349     C      0.039120000000     0.828790000000     0.746000000000    -0.0816702  
C350     C      0.017880000000     0.828760000000     0.718650000000    -0.00505237 
C351     C      0.830210000000     0.974870000000     0.771350000000    -0.00516885 
C352     C      0.829550000000     0.953380000000     0.744110000000    -0.0816053  
C353     C      0.828900000000     0.974960000000     0.716890000000    -0.00505208 
C354     C      0.828910000000     0.017060000000     0.716950000000    -0.00501384 
C355     C      0.829570000000     0.038510000000     0.744230000000    -0.0815854  
C356     C      0.830210000000     0.016880000000     0.771410000000    -0.0052334  
C357     C      0.018050000000     0.829680000000     0.520970000000    -0.00521664 
C358     C      0.039340000000     0.829100000000     0.993630000000    -0.0846723  
C359     C      0.017550000000     0.828490000000     0.966500000000    -0.00507231 
C360     C      0.975450000000     0.828470000000     0.966760000000    -0.00479476 
C361     C      0.954210000000     0.829040000000     0.494130000000    -0.0815882  
C362     C      0.976050000000     0.829650000000     0.521220000000    -0.0052628  
C363     C      0.829390000000     0.974960000000     0.967880000000    -0.00497119 
C364     C      0.829440000000     0.953500000000     0.495140000000    -0.0817051  
C365     C      0.829470000000     0.975120000000     0.522350000000    -0.00499228 
C366     C      0.829450000000     0.017160000000     0.522310000000    -0.0050897  
C367     C      0.829440000000     0.038630000000     0.995060000000    -0.0846867  
C368     C      0.829410000000     0.017020000000     0.967840000000    -0.00507393 
C369     C      0.137260000000     0.641230000000     0.764020000000    -0.00342494 
C370     C      0.163500000000     0.620200000000     0.744910000000    -0.0822452  
C371     C      0.189780000000     0.641800000000     0.726180000000    -0.00348357 
C372     C      0.189340000000     0.683860000000     0.726200000000    -0.00383129 
C373     C      0.163630000000     0.704880000000     0.745720000000    -0.0821728  
C374     C      0.137820000000     0.683270000000     0.764810000000    -0.00362426 
C375     C      0.138150000000     0.350490000000     0.724870000000    -0.00344957 
C376     C      0.164100000000     0.372010000000     0.743900000000    -0.0819288  
C377     C      0.190130000000     0.350910000000     0.763130000000    -0.00361776 
C378     C      0.189630000000     0.308870000000     0.763760000000    -0.00334138 
C379     C      0.164130000000     0.287340000000     0.744400000000    -0.0821283  
C380     C      0.138680000000     0.308420000000     0.724730000000    -0.00330014 
C381     C      0.189850000000     0.641590000000     0.974460000000    -0.00268217 
C382     C      0.163590000000     0.620320000000     0.993430000000    -0.0866848  
C383     C      0.137310000000     0.641670000000     0.512300000000    -0.00350415 
C384     C      0.137830000000     0.683720000000     0.512640000000    -0.00352437 
C385     C      0.163630000000     0.705000000000     0.993340000000    -0.0849392  
C386     C      0.189360000000     0.683660000000     0.974030000000    -0.00417058 
C387     C      0.189880000000     0.351000000000     0.014260000000     0.000972705
C388     C      0.163580000000     0.372130000000     0.995240000000    -0.0868442  
C389     C      0.137180000000     0.350630000000     0.476550000000    -0.00352738 
C390     C      0.137650000000     0.308580000000     0.476440000000    -0.0035209  
C391     C      0.163500000000     0.287450000000     0.995780000000    -0.0848868  
C392     C      0.189340000000     0.308930000000     0.014910000000    -0.00079967 
C393     C      0.127270000000     0.495260000000     0.884920000000    -0.00520108 
C394     C      0.163670000000     0.495300000000     0.901040000000    -0.0818384  
C395     C      0.200100000000     0.495320000000     0.884940000000    -0.00530989 
C396     C      0.200120000000     0.495390000000     0.853490000000    -0.00548011 
C397     C      0.163710000000     0.495390000000     0.837370000000    -0.0816232  
C398     C      0.127280000000     0.495270000000     0.853470000000    -0.00541467 
C399     C      0.200110000000     0.497130000000     0.603470000000    -0.00528129 
C400     C      0.163680000000     0.497080000000     0.587370000000    -0.0818387  
C401     C      0.127270000000     0.497010000000     0.603490000000    -0.0052813  
C402     C      0.127290000000     0.496940000000     0.634940000000    -0.00531308 
C403     C      0.163710000000     0.496880000000     0.651030000000    -0.0817167  
C404     C      0.200120000000     0.497000000000     0.634920000000    -0.00530375 
C405     C      0.350830000000     0.137450000000     0.724380000000    -0.00346942 
C406     C      0.372560000000     0.163420000000     0.743260000000    -0.0819513  
C407     C      0.351680000000     0.189360000000     0.762690000000    -0.00359975 
C408     C      0.309640000000     0.188800000000     0.763630000000    -0.00331557 
C409     C      0.287900000000     0.163310000000     0.744400000000    -0.0821167  
C410     C      0.308770000000     0.137910000000     0.724560000000    -0.00325458 
C411     C      0.642370000000     0.189010000000     0.723970000000    -0.00347798 
C412     C      0.620770000000     0.162720000000     0.742690000000    -0.0820694  
C413     C      0.641780000000     0.136420000000     0.761750000000    -0.00344386 
C414     C      0.683820000000     0.136950000000     0.762530000000    -0.00356142 
C415     C      0.705440000000     0.162800000000     0.743490000000    -0.082039   
C416     C      0.684450000000     0.188550000000     0.723980000000    -0.00382535 
C417     C      0.350990000000     0.189170000000     0.974200000000    -0.00269742 
C418     C      0.372590000000     0.162960000000     0.992980000000    -0.0866795  
C419     C      0.351580000000     0.136840000000     0.512190000000    -0.00340857 
C420     C      0.309530000000     0.137460000000     0.513030000000    -0.00359555 
C421     C      0.287920000000     0.163200000000     0.993900000000    -0.0849228  
C422     C      0.308920000000     0.188770000000     0.974280000000    -0.00404735 
C423     C      0.641830000000     0.189240000000     0.512170000000    -0.0036179  
C424     C      0.620790000000     0.163440000000     0.992740000000    -0.0864815  
C425     C      0.642350000000     0.137690000000     0.973580000000    -0.00270177 
C426     C      0.684430000000     0.138230000000     0.973510000000    -0.00358305 
C427     C      0.705450000000     0.163460000000     0.993370000000    -0.0849414  
C428     C      0.683870000000     0.188730000000     0.512860000000    -0.00325912 
C429     C      0.495570000000     0.126720000000     0.883320000000    -0.00543834 
C430     C      0.496710000000     0.163130000000     0.899410000000    -0.0816423  
C431     C      0.497920000000     0.199520000000     0.883300000000    -0.00544774 
C432     C      0.497980000000     0.199500000000     0.851850000000    -0.00526289 
C433     C      0.496830000000     0.163100000000     0.835750000000    -0.0819542  
C434     C      0.495620000000     0.126710000000     0.851870000000    -0.00522867 
C435     C      0.497760000000     0.126720000000     0.601850000000    -0.00537703 
C436     C      0.496660000000     0.163130000000     0.585750000000    -0.0816926  
C437     C      0.495470000000     0.199520000000     0.601860000000    -0.00539654 
C438     C      0.495390000000     0.199500000000     0.633320000000    -0.00523831 
C439     C      0.496500000000     0.163100000000     0.649420000000    -0.0818308  
C440     C      0.497680000000     0.126710000000     0.633300000000    -0.00524799 
C441     C      0.856400000000     0.350640000000     0.728240000000    -0.00349659 
C442     C      0.829760000000     0.371840000000     0.746930000000    -0.0821077  
C443     C      0.803140000000     0.350410000000     0.765510000000    -0.00348826 
C444     C      0.803630000000     0.308340000000     0.765740000000    -0.00371878 
C445     C      0.829720000000     0.287160000000     0.746610000000    -0.0822592  
C446     C      0.855880000000     0.308600000000     0.727690000000    -0.00347976 
C447     C      0.803090000000     0.641500000000     0.765060000000    -0.00334152 
C448     C      0.829520000000     0.620050000000     0.746350000000    -0.0822402  
C449     C      0.855940000000     0.641220000000     0.727470000000    -0.0033172  
C450     C      0.855410000000     0.683260000000     0.726890000000    -0.00354633 
C451     C      0.829470000000     0.704720000000     0.745960000000    -0.0819728  
C452     C      0.803570000000     0.683570000000     0.765260000000    -0.00386477 
C453     C      0.803340000000     0.350430000000     0.014570000000     0.000739446
C454     C      0.829520000000     0.371970000000     0.995740000000    -0.0865856  
C455     C      0.855540000000     0.350900000000     0.476470000000    -0.00344124 
C456     C      0.854930000000     0.308840000000     0.475710000000    -0.00335026 
C457     C      0.829320000000     0.287310000000     0.994990000000    -0.0849046  
C458     C      0.803760000000     0.308380000000     0.014580000000    -0.000254432
C459     C      0.803620000000     0.641350000000     0.977770000000    -0.00278656 
C460     C      0.829540000000     0.620150000000     0.497020000000    -0.0818687  
C461     C      0.855450000000     0.641570000000     0.516150000000    -0.00351307 
C462     C      0.854950000000     0.683640000000     0.516380000000    -0.00330316 
C463     C      0.829580000000     0.704820000000     0.496710000000    -0.0820752  
C464     C      0.804150000000     0.683400000000     0.977240000000    -0.0036317  
C465     C      0.866930000000     0.497180000000     0.887450000000    -0.00519019 
C466     C      0.830470000000     0.496630000000     0.903520000000    -0.0817829  
C467     C      0.794100000000     0.496030000000     0.887380000000    -0.00540415 
C468     C      0.794160000000     0.495960000000     0.855960000000    -0.00542907 
C469     C      0.830590000000     0.496440000000     0.839870000000    -0.0816868  
C470     C      0.866990000000     0.497070000000     0.855980000000    -0.00516909 
C471     C      0.792290000000     0.496010000000     0.605930000000    -0.00522033 
C472     C      0.828750000000     0.495410000000     0.589850000000    -0.0817757  
C473     C      0.865110000000     0.494780000000     0.605990000000    -0.00538814 
C474     C      0.865060000000     0.494830000000     0.637420000000    -0.00549623 
C475     C      0.828630000000     0.495480000000     0.653520000000    -0.0816765  
C476     C      0.792230000000     0.496030000000     0.637400000000    -0.00525178 
C477     C      0.351120000000     0.855680000000     0.729110000000    -0.00345745 
C478     C      0.372470000000     0.829310000000     0.747910000000    -0.0821301  
C479     C      0.351190000000     0.803020000000     0.766840000000    -0.00349463 
C480     C      0.309110000000     0.803530000000     0.767270000000    -0.00377786 
C481     C      0.287780000000     0.829330000000     0.748010000000    -0.0822292  
C482     C      0.309080000000     0.855190000000     0.728770000000    -0.00347997 
C483     C      0.642250000000     0.855580000000     0.763980000000    -0.00346783 
C484     C      0.620650000000     0.829170000000     0.745380000000    -0.0821827  
C485     C      0.641680000000     0.802890000000     0.726270000000    -0.0034701  
C486     C      0.683750000000     0.803440000000     0.725480000000    -0.00382675 
C487     C      0.705330000000     0.829270000000     0.744560000000    -0.08218    
C488     C      0.684300000000     0.855130000000     0.763960000000    -0.00352321 
C489     C      0.351670000000     0.855450000000     0.976740000000    -0.00276627 
C490     C      0.372700000000     0.829250000000     0.995890000000    -0.0866667  
C491     C      0.351110000000     0.803010000000     0.514650000000    -0.00354807 
C492     C      0.309050000000     0.803460000000     0.514640000000    -0.00374137 
C493     C      0.288020000000     0.829130000000     0.995110000000    -0.0850734  
C494     C      0.309620000000     0.854880000000     0.975970000000    -0.00385688 
C495     C      0.642310000000     0.854470000000     0.516760000000    -0.00348424 
C496     C      0.620890000000     0.828590000000     0.497600000000    -0.0819001  
C497     C      0.642080000000     0.802560000000     0.978440000000    -0.00286673 
C498     C      0.684120000000     0.803020000000     0.977960000000    -0.00358893 
C499     C      0.705560000000     0.828470000000     0.497410000000    -0.0821452  
C500     C      0.684390000000     0.853890000000     0.517050000000    -0.00329394 
C501     C      0.498030000000     0.865490000000     0.887600000000    -0.00542523 
C502     C      0.497890000000     0.829060000000     0.903690000000    -0.0816938  
C503     C      0.497870000000     0.792650000000     0.887560000000    -0.00546557 
C504     C      0.497920000000     0.792680000000     0.856110000000    -0.00536729 
C505     C      0.497920000000     0.829110000000     0.840020000000    -0.0817969  
C506     C      0.498020000000     0.865510000000     0.856140000000    -0.00529229 
C507     C      0.495420000000     0.792650000000     0.606150000000    -0.00533826 
C508     C      0.495590000000     0.829050000000     0.590030000000    -0.0815826  
C509     C      0.495510000000     0.865490000000     0.606110000000    -0.00537996 
C510     C      0.495410000000     0.865510000000     0.637560000000    -0.00519917 
C511     C      0.495330000000     0.829110000000     0.653680000000    -0.0817979  
C512     C      0.495260000000     0.792680000000     0.637600000000    -0.00522934 
Cu1      Cu     0.496900000000     0.866290000000     0.496870000000     0.83955    
Cu2      Cu     0.496690000000     0.791740000000     0.996860000000     0.837886   
Cu3      Cu     0.496590000000     0.866410000000     0.246840000000     0.840465   
Cu4      Cu     0.496540000000     0.791860000000     0.246840000000     0.840362   
Cu5      Cu     0.792320000000     0.496050000000     0.996490000000     0.837897   
Cu6      Cu     0.866880000000     0.496060000000     0.496850000000     0.839831   
Cu7      Cu     0.792320000000     0.495910000000     0.247130000000     0.840882   
Cu8      Cu     0.866890000000     0.495990000000     0.246280000000     0.840505   
Cu9      Cu     0.496610000000     0.200420000000     0.492580000000     0.840852   
Cu10     Cu     0.496770000000     0.125870000000     0.492580000000     0.839824   
Cu11     Cu     0.496770000000     0.200360000000     0.242590000000     0.840748   
Cu12     Cu     0.496540000000     0.125810000000     0.242590000000     0.840028   
Cu13     Cu     0.126380000000     0.496220000000     0.494210000000     0.840462   
Cu14     Cu     0.200940000000     0.496220000000     0.494210000000     0.840491   
Cu15     Cu     0.126460000000     0.496010000000     0.244190000000     0.839863   
Cu16     Cu     0.201020000000     0.496200000000     0.244200000000     0.841039   
Cu17     Cu     0.830420000000     0.829370000000     0.023660000000     0.844097   
Cu18     Cu     0.828850000000     0.828450000000     0.467900000000     0.83921    
Cu19     Cu     0.829080000000     0.829310000000     0.272780000000     0.841903   
Cu20     Cu     0.829760000000     0.828290000000     0.217030000000     0.838489   
Cu21     Cu     0.830250000000     0.163050000000     0.467090000000     0.841015   
Cu22     Cu     0.828800000000     0.163390000000     0.022860000000     0.842347   
Cu23     Cu     0.830340000000     0.163690000000     0.217470000000     0.840699   
Cu24     Cu     0.828710000000     0.162470000000     0.273210000000     0.839668   
Cu25     Cu     0.164480000000     0.163050000000     0.023300000000     0.840724   
Cu26     Cu     0.163180000000     0.163650000000     0.467560000000     0.842085   
Cu27     Cu     0.164500000000     0.164030000000     0.273950000000     0.837434   
Cu28     Cu     0.163140000000     0.162500000000     0.218190000000     0.843386   
Cu29     Cu     0.164360000000     0.829520000000     0.466210000000     0.838593   
Cu30     Cu     0.163490000000     0.828660000000     0.021960000000     0.844288   
Cu31     Cu     0.164230000000     0.829520000000     0.219140000000     0.841812   
Cu32     Cu     0.163150000000     0.828410000000     0.274880000000     0.83845    
Cu33     Cu     0.496900000000     0.866290000000     0.996870000000     0.836335   
Cu34     Cu     0.496690000000     0.791740000000     0.496860000000     0.841119   
Cu35     Cu     0.496590000000     0.866410000000     0.746840000000     0.840485   
Cu36     Cu     0.496540000000     0.791860000000     0.746840000000     0.840282   
Cu37     Cu     0.792320000000     0.496050000000     0.496490000000     0.841147   
Cu38     Cu     0.866880000000     0.496060000000     0.996860000000     0.836628   
Cu39     Cu     0.792320000000     0.495910000000     0.747130000000     0.840802   
Cu40     Cu     0.866890000000     0.495990000000     0.746280000000     0.840521   
Cu41     Cu     0.496610000000     0.200420000000     0.992580000000     0.837594   
Cu42     Cu     0.496770000000     0.125870000000     0.992580000000     0.836649   
Cu43     Cu     0.496770000000     0.200360000000     0.742590000000     0.840801   
Cu44     Cu     0.496540000000     0.125810000000     0.742590000000     0.840022   
Cu45     Cu     0.126380000000     0.496220000000     0.994210000000     0.837275   
Cu46     Cu     0.200940000000     0.496220000000     0.994210000000     0.837239   
Cu47     Cu     0.126460000000     0.496010000000     0.744190000000     0.839877   
Cu48     Cu     0.201020000000     0.496200000000     0.744200000000     0.84096    
Cu49     Cu     0.830420000000     0.829370000000     0.523660000000     0.841574   
Cu50     Cu     0.828850000000     0.828450000000     0.967900000000     0.835375   
Cu51     Cu     0.829080000000     0.829310000000     0.772780000000     0.841963   
Cu52     Cu     0.829760000000     0.828290000000     0.717030000000     0.838414   
Cu53     Cu     0.830250000000     0.163050000000     0.967090000000     0.837072   
Cu54     Cu     0.828800000000     0.163390000000     0.522860000000     0.839816   
Cu55     Cu     0.830340000000     0.163690000000     0.717470000000     0.840673   
Cu56     Cu     0.828710000000     0.162470000000     0.773210000000     0.839781   
Cu57     Cu     0.164480000000     0.163050000000     0.523300000000     0.838183   
Cu58     Cu     0.163180000000     0.163650000000     0.967560000000     0.838195   
Cu59     Cu     0.164500000000     0.164030000000     0.773950000000     0.837471   
Cu60     Cu     0.163140000000     0.162500000000     0.718190000000     0.843286   
Cu61     Cu     0.164360000000     0.829520000000     0.966210000000     0.834726   
Cu62     Cu     0.163490000000     0.828660000000     0.521960000000     0.841743   
Cu63     Cu     0.164230000000     0.829520000000     0.719140000000     0.841767   
Cu64     Cu     0.163150000000     0.828410000000     0.774880000000     0.838534   
H1       H      0.164880000000     0.033080000000     0.296200000000     0.0448859  
H2       H      0.162610000000     0.032360000000     0.198930000000     0.0447323  
H3       H      0.162530000000     0.959330000000     0.199160000000     0.0448257  
H4       H      0.164810000000     0.959690000000     0.296430000000     0.0448361  
H5       H      0.163790000000     0.033110000000     0.446350000000     0.0449868  
H6       H      0.164160000000     0.032540000000     0.043630000000     0.0443118  
H7       H      0.164200000000     0.959320000000     0.043400000000     0.0444296  
H8       H      0.163810000000     0.959910000000     0.446120000000     0.0448727  
H9       H      0.959730000000     0.164360000000     0.295550000000     0.0447078  
H10      H      0.960380000000     0.162090000000     0.198280000000     0.0449252  
H11      H      0.033380000000     0.162180000000     0.198470000000     0.0449472  
H12      H      0.033150000000     0.164450000000     0.295740000000     0.0447078  
H13      H      0.033240000000     0.164190000000     0.045090000000     0.0444809  
H14      H      0.033330000000     0.162370000000     0.447820000000     0.0448276  
H15      H      0.960310000000     0.162340000000     0.447700000000     0.0448663  
H16      H      0.959840000000     0.164140000000     0.044970000000     0.0445028  
H17      H      0.960450000000     0.828730000000     0.196920000000     0.0446575  
H18      H      0.959450000000     0.828630000000     0.294200000000     0.0449734  
H19      H      0.032640000000     0.828730000000     0.294620000000     0.0448766  
H20      H      0.033690000000     0.828810000000     0.197340000000     0.044721   
H21      H      0.830710000000     0.959290000000     0.292750000000     0.0447189  
H22      H      0.828380000000     0.959390000000     0.195490000000     0.0449333  
H23      H      0.828400000000     0.032750000000     0.195590000000     0.0449612  
H24      H      0.830730000000     0.032350000000     0.292860000000     0.0446755  
H25      H      0.033790000000     0.830150000000     0.042310000000     0.044463   
H26      H      0.032970000000     0.828040000000     0.445040000000     0.0448677  
H27      H      0.959590000000     0.827990000000     0.445470000000     0.0448984  
H28      H      0.960750000000     0.830100000000     0.042730000000     0.0443861  
H29      H      0.829380000000     0.959310000000     0.446500000000     0.0446458  
H30      H      0.829490000000     0.959610000000     0.043790000000     0.0445972  
H31      H      0.829480000000     0.032780000000     0.043700000000     0.0447374  
H32      H      0.829380000000     0.032560000000     0.446420000000     0.0445867  
H33      H      0.116860000000     0.625120000000     0.278740000000     0.0420764  
H34      H      0.210170000000     0.626140000000     0.211190000000     0.0419779  
H35      H      0.209590000000     0.699970000000     0.211370000000     0.0421519  
H36      H      0.117630000000     0.698920000000     0.279950000000     0.0421505  
H37      H      0.117940000000     0.366220000000     0.209780000000     0.0419231  
H38      H      0.210280000000     0.366960000000     0.278080000000     0.0417198  
H39      H      0.209600000000     0.293160000000     0.279030000000     0.040934   
H40      H      0.118660000000     0.292340000000     0.209710000000     0.0418347  
H41      H      0.210260000000     0.625660000000     0.459640000000     0.0418949  
H42      H      0.116920000000     0.625830000000     0.027180000000     0.0419372  
H43      H      0.117640000000     0.699620000000     0.027640000000     0.0420217  
H44      H      0.209620000000     0.699520000000     0.459060000000     0.0420345  
H45      H      0.210370000000     0.367030000000     0.528950000000     0.0419976  
H46      H      0.116750000000     0.366350000000     0.961640000000     0.0415612  
H47      H      0.117380000000     0.292570000000     0.961560000000     0.0418756  
H48      H      0.209650000000     0.293180000000     0.529910000000     0.042199   
H49      H      0.098640000000     0.495220000000     0.396560000000     0.0448321  
H50      H      0.228720000000     0.495370000000     0.396600000000     0.0447451  
H51      H      0.228740000000     0.495450000000     0.341840000000     0.0447688  
H52      H      0.098670000000     0.495270000000     0.341810000000     0.0449158  
H53      H      0.228720000000     0.497160000000     0.091810000000     0.0453856  
H54      H      0.098640000000     0.497000000000     0.091840000000     0.045151   
H55      H      0.098670000000     0.496850000000     0.146600000000     0.0447564  
H56      H      0.228750000000     0.496990000000     0.146560000000     0.045026   
H57      H      0.366390000000     0.117290000000     0.209160000000     0.0418351  
H58      H      0.367900000000     0.209510000000     0.277530000000     0.0416942  
H59      H      0.294090000000     0.208750000000     0.279020000000     0.0408765  
H60      H      0.292540000000     0.117910000000     0.209610000000     0.0416817  
H61      H      0.626720000000     0.209450000000     0.209010000000     0.0418789  
H62      H      0.625670000000     0.116010000000     0.276460000000     0.0418864  
H63      H      0.699450000000     0.116740000000     0.277670000000     0.0418906  
H64      H      0.700580000000     0.208840000000     0.209200000000     0.04205    
H65      H      0.366640000000     0.209470000000     0.459140000000     0.0417786  
H66      H      0.367690000000     0.116500000000     0.026960000000     0.0419536  
H67      H      0.293890000000     0.117370000000     0.028260000000     0.0420264  
H68      H      0.292790000000     0.208970000000     0.459410000000     0.0419389  
H69      H      0.625740000000     0.209230000000     0.027210000000     0.0416448  
H70      H      0.626660000000     0.117660000000     0.458340000000     0.0417955  
H71      H      0.700530000000     0.118380000000     0.458370000000     0.0415983  
H72      H      0.699550000000     0.208540000000     0.028270000000     0.0409139  
H73      H      0.494620000000     0.098120000000     0.394970000000     0.0448443  
H74      H      0.498830000000     0.228130000000     0.394950000000     0.0448976  
H75      H      0.498920000000     0.228100000000     0.340190000000     0.0448249  
H76      H      0.494710000000     0.098100000000     0.340220000000     0.0447611  
H77      H      0.498680000000     0.098120000000     0.090200000000     0.045314   
H78      H      0.494600000000     0.228130000000     0.090220000000     0.0453887  
H79      H      0.494480000000     0.228110000000     0.144970000000     0.0450064  
H80      H      0.498550000000     0.098100000000     0.144950000000     0.0449122  
H81      H      0.877070000000     0.366610000000     0.213650000000     0.0419466  
H82      H      0.782450000000     0.366220000000     0.280180000000     0.0419192  
H83      H      0.783080000000     0.292360000000     0.280420000000     0.0421679  
H84      H      0.876360000000     0.292820000000     0.212840000000     0.0420185  
H85      H      0.782570000000     0.625720000000     0.279880000000     0.0416588  
H86      H      0.876470000000     0.625230000000     0.212780000000     0.0418601  
H87      H      0.875730000000     0.699030000000     0.211910000000     0.0419478  
H88      H      0.783200000000     0.699570000000     0.280060000000     0.0418769  
H89      H      0.783110000000     0.366120000000     0.529670000000     0.0416897  
H90      H      0.875840000000     0.366980000000     0.961660000000     0.0414846  
H91      H      0.875010000000     0.293120000000     0.960520000000     0.0416258  
H92      H      0.783670000000     0.292310000000     0.529560000000     0.0409214  
H93      H      0.783510000000     0.625390000000     0.462750000000     0.0417123  
H94      H      0.875570000000     0.625760000000     0.031250000000     0.0417663  
H95      H      0.874910000000     0.699620000000     0.031500000000     0.0417107  
H96      H      0.784230000000     0.699190000000     0.461970000000     0.0409493  
H97      H      0.895510000000     0.497630000000     0.399150000000     0.0448828  
H98      H      0.765450000000     0.495610000000     0.398990000000     0.0448055  
H99      H      0.765530000000     0.495470000000     0.344320000000     0.0447261  
H100     H      0.895600000000     0.497470000000     0.344310000000     0.0450063  
H101     H      0.763700000000     0.496490000000     0.094230000000     0.0454065  
H102     H      0.893760000000     0.494310000000     0.094380000000     0.0451567  
H103     H      0.893690000000     0.494380000000     0.149060000000     0.0446658  
H104     H      0.763620000000     0.496540000000     0.149070000000     0.0451272  
H105     H      0.366970000000     0.876110000000     0.214250000000     0.0420341  
H106     H      0.367100000000     0.782540000000     0.281610000000     0.0418977  
H107     H      0.293230000000     0.783220000000     0.282190000000     0.0420578  
H108     H      0.293180000000     0.875430000000     0.213800000000     0.0420054  
H109     H      0.626610000000     0.876020000000     0.278950000000     0.0419034  
H110     H      0.625560000000     0.782400000000     0.211640000000     0.0420995  
H111     H      0.699420000000     0.783120000000     0.210450000000     0.0422679  
H112     H      0.700390000000     0.875390000000     0.278790000000     0.0419068  
H113     H      0.367770000000     0.875810000000     0.462000000000     0.0420753  
H114     H      0.366770000000     0.782660000000     0.029670000000     0.0419669  
H115     H      0.292940000000     0.783250000000     0.029510000000     0.0422265  
H116     H      0.293950000000     0.875040000000     0.460810000000     0.0421037  
H117     H      0.626500000000     0.874670000000     0.031800000000     0.0420796  
H118     H      0.626110000000     0.782460000000     0.463410000000     0.0416951  
H119     H      0.699910000000     0.783080000000     0.462710000000     0.0408705  
H120     H      0.700390000000     0.873880000000     0.032140000000     0.0419504  
H121     H      0.498040000000     0.894090000000     0.399260000000     0.0447772  
H122     H      0.497790000000     0.764020000000     0.399200000000     0.0447313  
H123     H      0.497830000000     0.764070000000     0.344450000000     0.0447507  
H124     H      0.498050000000     0.894140000000     0.344500000000     0.0447377  
H125     H      0.495450000000     0.764020000000     0.094500000000     0.0454258  
H126     H      0.495630000000     0.894100000000     0.094450000000     0.0453107  
H127     H      0.495440000000     0.894140000000     0.149200000000     0.0448344  
H128     H      0.495220000000     0.764070000000     0.149260000000     0.0450091  
H129     H      0.164880000000     0.033080000000     0.796200000000     0.0448826  
H130     H      0.162610000000     0.032360000000     0.698930000000     0.0446679  
H131     H      0.162530000000     0.959330000000     0.699160000000     0.0447815  
H132     H      0.164810000000     0.959690000000     0.796430000000     0.0448667  
H133     H      0.163790000000     0.033110000000     0.946340000000     0.044833   
H134     H      0.164160000000     0.032540000000     0.543630000000     0.044598   
H135     H      0.164200000000     0.959320000000     0.543410000000     0.0446645  
H136     H      0.163810000000     0.959910000000     0.946120000000     0.0447628  
H137     H      0.959730000000     0.164360000000     0.795550000000     0.0447134  
H138     H      0.960380000000     0.162090000000     0.698280000000     0.0448632  
H139     H      0.033380000000     0.162180000000     0.698470000000     0.0448866  
H140     H      0.033150000000     0.164450000000     0.795740000000     0.0447154  
H141     H      0.033240000000     0.164190000000     0.545100000000     0.0447003  
H142     H      0.033330000000     0.162370000000     0.947820000000     0.0447204  
H143     H      0.960310000000     0.162340000000     0.947700000000     0.0447541  
H144     H      0.959840000000     0.164140000000     0.544970000000     0.0447502  
H145     H      0.960450000000     0.828730000000     0.696920000000     0.044609   
H146     H      0.959450000000     0.828630000000     0.794200000000     0.0449718  
H147     H      0.032640000000     0.828730000000     0.794620000000     0.0448739  
H148     H      0.033690000000     0.828810000000     0.697340000000     0.0446726  
H149     H      0.830710000000     0.959290000000     0.792760000000     0.0446987  
H150     H      0.828380000000     0.959390000000     0.695490000000     0.0448741  
H151     H      0.828400000000     0.032750000000     0.695590000000     0.0449041  
H152     H      0.830730000000     0.032350000000     0.792860000000     0.0446839  
H153     H      0.033790000000     0.830150000000     0.542310000000     0.0447647  
H154     H      0.032970000000     0.828040000000     0.945040000000     0.0447168  
H155     H      0.959590000000     0.827990000000     0.945470000000     0.0447494  
H156     H      0.960750000000     0.830100000000     0.542730000000     0.0446882  
H157     H      0.829380000000     0.959310000000     0.946500000000     0.0445167  
H158     H      0.829490000000     0.959610000000     0.543790000000     0.0448775  
H159     H      0.829480000000     0.032780000000     0.543700000000     0.0449974  
H160     H      0.829380000000     0.032560000000     0.946420000000     0.0444693  
H161     H      0.116860000000     0.625120000000     0.778740000000     0.0420665  
H162     H      0.210170000000     0.626140000000     0.711190000000     0.0418863  
H163     H      0.209590000000     0.699970000000     0.711370000000     0.0420819  
H164     H      0.117630000000     0.698920000000     0.779950000000     0.0421432  
H165     H      0.117940000000     0.366220000000     0.709780000000     0.0418547  
H166     H      0.210280000000     0.366960000000     0.778080000000     0.0416996  
H167     H      0.209600000000     0.293160000000     0.779040000000     0.0409104  
H168     H      0.118660000000     0.292340000000     0.709710000000     0.0417643  
H169     H      0.210260000000     0.625660000000     0.959640000000     0.0414268  
H170     H      0.116920000000     0.625830000000     0.527180000000     0.0419262  
H171     H      0.117640000000     0.699620000000     0.527640000000     0.0419327  
H172     H      0.209620000000     0.699520000000     0.959060000000     0.0418688  
H173     H      0.210370000000     0.367030000000     0.028950000000     0.0420412  
H174     H      0.116750000000     0.366350000000     0.461640000000     0.041987   
H175     H      0.117380000000     0.292570000000     0.461560000000     0.0419805  
H176     H      0.209650000000     0.293180000000     0.029910000000     0.0423572  
H177     H      0.098640000000     0.495220000000     0.896560000000     0.0447402  
H178     H      0.228720000000     0.495370000000     0.896600000000     0.044604   
H179     H      0.228740000000     0.495450000000     0.841840000000     0.0447149  
H180     H      0.098670000000     0.495270000000     0.841810000000     0.0449038  
H181     H      0.228720000000     0.497160000000     0.591810000000     0.0448761  
H182     H      0.098640000000     0.497000000000     0.591840000000     0.0446696  
H183     H      0.098670000000     0.496850000000     0.646600000000     0.0446674  
H184     H      0.228750000000     0.496990000000     0.646560000000     0.0448921  
H185     H      0.366390000000     0.117290000000     0.709160000000     0.041768   
H186     H      0.367900000000     0.209510000000     0.777530000000     0.0416583  
H187     H      0.294090000000     0.208750000000     0.779020000000     0.0408766  
H188     H      0.292540000000     0.117910000000     0.709610000000     0.0416475  
H189     H      0.626720000000     0.209450000000     0.709020000000     0.0418198  
H190     H      0.625670000000     0.116010000000     0.776460000000     0.0418764  
H191     H      0.699450000000     0.116740000000     0.777670000000     0.0418867  
H192     H      0.700580000000     0.208840000000     0.709200000000     0.0419783  
H193     H      0.366640000000     0.209470000000     0.959140000000     0.0413271  
H194     H      0.367690000000     0.116500000000     0.526960000000     0.0419083  
H195     H      0.293890000000     0.117370000000     0.528260000000     0.0419346  
H196     H      0.292790000000     0.208970000000     0.959410000000     0.0417355  
H197     H      0.625740000000     0.209230000000     0.527210000000     0.0416608  
H198     H      0.626660000000     0.117660000000     0.958340000000     0.0413604  
H199     H      0.700530000000     0.118380000000     0.958370000000     0.0414618  
H200     H      0.699550000000     0.208540000000     0.528270000000     0.0408543  
H201     H      0.494620000000     0.098120000000     0.894970000000     0.0447671  
H202     H      0.498830000000     0.228130000000     0.894950000000     0.0447609  
H203     H      0.498920000000     0.228100000000     0.840190000000     0.044757   
H204     H      0.494710000000     0.098100000000     0.840220000000     0.044746   
H205     H      0.498680000000     0.098120000000     0.590200000000     0.0448299  
H206     H      0.494600000000     0.228130000000     0.590220000000     0.044884   
H207     H      0.494480000000     0.228110000000     0.644970000000     0.04488    
H208     H      0.498550000000     0.098100000000     0.644950000000     0.0448232  
H209     H      0.877070000000     0.366610000000     0.713650000000     0.0418966  
H210     H      0.782450000000     0.366220000000     0.780180000000     0.0418988  
H211     H      0.783080000000     0.292360000000     0.780420000000     0.0421123  
H212     H      0.876360000000     0.292820000000     0.712840000000     0.0419283  
H213     H      0.782570000000     0.625720000000     0.779880000000     0.0416317  
H214     H      0.876470000000     0.625230000000     0.712780000000     0.0418052  
H215     H      0.875730000000     0.699030000000     0.711910000000     0.0419007  
H216     H      0.783200000000     0.699570000000     0.780060000000     0.041863   
H217     H      0.783110000000     0.366120000000     0.029660000000     0.0417177  
H218     H      0.875840000000     0.366980000000     0.461660000000     0.0419081  
H219     H      0.875010000000     0.293120000000     0.460520000000     0.0417474  
H220     H      0.783670000000     0.292310000000     0.029560000000     0.0409602  
H221     H      0.783510000000     0.625390000000     0.962740000000     0.0412716  
H222     H      0.875570000000     0.625760000000     0.531250000000     0.0417644  
H223     H      0.874910000000     0.699620000000     0.531500000000     0.041639   
H224     H      0.784230000000     0.699190000000     0.961970000000     0.0408211  
H225     H      0.895510000000     0.497630000000     0.899150000000     0.0447962  
H226     H      0.765450000000     0.495610000000     0.898990000000     0.0446739  
H227     H      0.765530000000     0.495470000000     0.844320000000     0.0446639  
H228     H      0.895600000000     0.497470000000     0.844310000000     0.044987   
H229     H      0.763700000000     0.496490000000     0.594230000000     0.0448997  
H230     H      0.893760000000     0.494310000000     0.594380000000     0.044683   
H231     H      0.893690000000     0.494380000000     0.649060000000     0.0445807  
H232     H      0.763620000000     0.496540000000     0.649070000000     0.0449945  
H233     H      0.366970000000     0.876110000000     0.714250000000     0.0419595  
H234     H      0.367100000000     0.782540000000     0.781610000000     0.0418699  
H235     H      0.293230000000     0.783220000000     0.782190000000     0.0420268  
H236     H      0.293180000000     0.875430000000     0.713800000000     0.0419475  
H237     H      0.626610000000     0.876020000000     0.778950000000     0.0418941  
H238     H      0.625560000000     0.782400000000     0.711640000000     0.0420273  
H239     H      0.699420000000     0.783120000000     0.710450000000     0.0421738  
H240     H      0.700390000000     0.875390000000     0.778790000000     0.0419003  
H241     H      0.367770000000     0.875810000000     0.962000000000     0.0416369  
H242     H      0.366770000000     0.782660000000     0.529670000000     0.041926   
H243     H      0.292940000000     0.783250000000     0.529510000000     0.0420686  
H244     H      0.293950000000     0.875040000000     0.960810000000     0.0419454  
H245     H      0.626500000000     0.874670000000     0.531810000000     0.0420343  
H246     H      0.626110000000     0.782460000000     0.963410000000     0.041271   
H247     H      0.699910000000     0.783080000000     0.962710000000     0.0407409  
H248     H      0.700390000000     0.873880000000     0.532140000000     0.0418707  
H249     H      0.498040000000     0.894090000000     0.899260000000     0.0446953  
H250     H      0.497790000000     0.764020000000     0.899200000000     0.0446067  
H251     H      0.497830000000     0.764070000000     0.844450000000     0.044692   
H252     H      0.498050000000     0.894140000000     0.844500000000     0.0447176  
H253     H      0.495450000000     0.764020000000     0.594500000000     0.0449113  
H254     H      0.495630000000     0.894100000000     0.594450000000     0.0448395  
H255     H      0.495440000000     0.894140000000     0.649200000000     0.0447529  
H256     H      0.495220000000     0.764070000000     0.649260000000     0.0448784  
O1       O      0.435900000000     0.862790000000     0.495280000000    -0.381907   
O2       O      0.557880000000     0.862470000000     0.498460000000    -0.381782   
O3       O      0.498620000000     0.862610000000     0.451260000000    -0.383147   
O4       O      0.495140000000     0.862620000000     0.042460000000    -0.380409   
O5       O      0.497180000000     0.795430000000     0.042480000000    -0.380271   
O6       O      0.496220000000     0.795440000000     0.451240000000    -0.383232   
O7       O      0.557680000000     0.795210000000     0.996230000000    -0.382969   
O8       O      0.435720000000     0.795530000000     0.997500000000    -0.383389   
O9       O      0.435610000000     0.862820000000     0.246380000000    -0.382339   
O10      O      0.557570000000     0.862740000000     0.247280000000    -0.382253   
O11      O      0.496880000000     0.862720000000     0.201220000000    -0.383301   
O12      O      0.496310000000     0.862720000000     0.292470000000    -0.383156   
O13      O      0.498470000000     0.795550000000     0.292440000000    -0.383181   
O14      O      0.494630000000     0.795550000000     0.201250000000    -0.383234   
O15      O      0.557520000000     0.795480000000     0.245070000000    -0.381936   
O16      O      0.435560000000     0.795560000000     0.248580000000    -0.381881   
O17      O      0.795970000000     0.557030000000     0.995680000000    -0.382891   
O18      O      0.795960000000     0.435070000000     0.997290000000    -0.383387   
O19      O      0.795490000000     0.496790000000     0.042140000000    -0.380214   
O20      O      0.796540000000     0.495310000000     0.450910000000    -0.383484   
O21      O      0.863720000000     0.497600000000     0.451230000000    -0.383032   
O22      O      0.862660000000     0.494500000000     0.042430000000    -0.380663   
O23      O      0.863230000000     0.435070000000     0.495340000000    -0.38192    
O24      O      0.863210000000     0.557040000000     0.498270000000    -0.381931   
O25      O      0.795900000000     0.556920000000     0.247220000000    -0.382137   
O26      O      0.796010000000     0.434910000000     0.247530000000    -0.382108   
O27      O      0.796610000000     0.496130000000     0.292590000000    -0.384638   
O28      O      0.795390000000     0.495710000000     0.201360000000    -0.381763   
O29      O      0.862610000000     0.495710000000     0.200810000000    -0.384531   
O30      O      0.863830000000     0.496260000000     0.292040000000    -0.38202    
O31      O      0.863320000000     0.434990000000     0.246240000000    -0.38222    
O32      O      0.863200000000     0.556970000000     0.245850000000    -0.382236   
O33      O      0.557600000000     0.196900000000     0.493710000000    -0.382136   
O34      O      0.435640000000     0.196670000000     0.491490000000    -0.382213   
O35      O      0.495480000000     0.196730000000     0.038200000000    -0.380346   
O36      O      0.497770000000     0.196730000000     0.446970000000    -0.383184   
O37      O      0.495560000000     0.129550000000     0.446970000000    -0.383181   
O38      O      0.497970000000     0.129560000000     0.038190000000    -0.380459   
O39      O      0.435770000000     0.129420000000     0.493780000000    -0.38208    
O40      O      0.557760000000     0.129650000000     0.491400000000    -0.381923   
O41      O      0.435780000000     0.196890000000     0.243880000000    -0.382027   
O42      O      0.557750000000     0.196540000000     0.241340000000    -0.382007   
O43      O      0.495450000000     0.196680000000     0.196980000000    -0.383042   
O44      O      0.498070000000     0.196670000000     0.288200000000    -0.383263   
O45      O      0.495530000000     0.129510000000     0.288200000000    -0.383321   
O46      O      0.497580000000     0.129500000000     0.196970000000    -0.383099   
O47      O      0.557540000000     0.129290000000     0.243630000000    -0.382165   
O48      O      0.435560000000     0.129640000000     0.241590000000    -0.382007   
O49      O      0.130020000000     0.557200000000     0.494860000000    -0.382239   
O50      O      0.130030000000     0.435240000000     0.493580000000    -0.382355   
O51      O      0.130070000000     0.495690000000     0.039830000000    -0.380464   
O52      O      0.130070000000     0.496740000000     0.448590000000    -0.383224   
O53      O      0.197250000000     0.494540000000     0.448610000000    -0.383224   
O54      O      0.197250000000     0.497900000000     0.039810000000    -0.380448   
O55      O      0.197280000000     0.435240000000     0.495790000000    -0.382056   
O56      O      0.197280000000     0.557200000000     0.492650000000    -0.381984   
O57      O      0.129980000000     0.557000000000     0.245600000000    -0.382086   
O58      O      0.130260000000     0.435030000000     0.242800000000    -0.381896   
O59      O      0.130140000000     0.494520000000     0.289800000000    -0.383102   
O60      O      0.130140000000     0.497520000000     0.198590000000    -0.383332   
O61      O      0.197330000000     0.495480000000     0.198580000000    -0.383071   
O62      O      0.197320000000     0.496910000000     0.289820000000    -0.383129   
O63      O      0.197520000000     0.435210000000     0.245020000000    -0.382243   
O64      O      0.197230000000     0.557170000000     0.243380000000    -0.382352   
O65      O      0.830810000000     0.768300000000     0.021400000000    -0.378726   
O66      O      0.830230000000     0.890220000000     0.020520000000    -0.381136   
O67      O      0.769280000000     0.829590000000     0.021820000000    -0.378284   
O68      O      0.891240000000     0.829420000000     0.019990000000    -0.381005   
O69      O      0.890000000000     0.828550000000     0.469730000000    -0.38221    
O70      O      0.768010000000     0.828040000000     0.471490000000    -0.382759   
O71      O      0.828850000000     0.889610000000     0.470270000000    -0.382259   
O72      O      0.828620000000     0.767540000000     0.471070000000    -0.382263   
O73      O      0.827510000000     0.768240000000     0.270580000000    -0.381857   
O74      O      0.830340000000     0.890130000000     0.269510000000    -0.384285   
O75      O      0.768240000000     0.830880000000     0.269790000000    -0.383306   
O76      O      0.890130000000     0.828040000000     0.270310000000    -0.383005   
O77      O      0.890680000000     0.829400000000     0.220050000000    -0.383205   
O78      O      0.768640000000     0.826920000000     0.219530000000    -0.380983   
O79      O      0.828670000000     0.889450000000     0.219260000000    -0.38191    
O80      O      0.831180000000     0.767400000000     0.220300000000    -0.382146   
O81      O      0.830570000000     0.224150000000     0.469770000000    -0.381453   
O82      O      0.830130000000     0.102120000000     0.469870000000    -0.383736   
O83      O      0.769150000000     0.162740000000     0.468980000000    -0.381845   
O84      O      0.891050000000     0.163030000000     0.470660000000    -0.384365   
O85      O      0.889990000000     0.163390000000     0.020920000000    -0.37886    
O86      O      0.767920000000     0.163760000000     0.019330000000    -0.379152   
O87      O      0.828870000000     0.102320000000     0.020130000000    -0.379489   
O88      O      0.828480000000     0.224280000000     0.020110000000    -0.379536   
O89      O      0.831770000000     0.224560000000     0.220880000000    -0.382544   
O90      O      0.829120000000     0.102550000000     0.219550000000    -0.382209   
O91      O      0.769240000000     0.165130000000     0.219290000000    -0.381823   
O92      O      0.891110000000     0.162500000000     0.221150000000    -0.384391   
O93      O      0.889900000000     0.163740000000     0.271400000000    -0.38194    
O94      O      0.767860000000     0.160950000000     0.269530000000    -0.38244    
O95      O      0.830000000000     0.101660000000     0.269810000000    -0.384061   
O96      O      0.827220000000     0.223560000000     0.271120000000    -0.381441   
O97      O      0.163330000000     0.102150000000     0.020350000000    -0.380385   
O98      O      0.165870000000     0.224140000000     0.020770000000    -0.377922   
O99      O      0.103280000000     0.164170000000     0.021240000000    -0.378507   
O100     O      0.225380000000     0.161590000000     0.019830000000    -0.378822   
O101     O      0.224240000000     0.165170000000     0.469550000000    -0.382113   
O102     O      0.102410000000     0.162440000000     0.471000000000    -0.384781   
O103     O      0.161670000000     0.224520000000     0.470520000000    -0.383067   
O104     O      0.164430000000     0.102580000000     0.470090000000    -0.382888   
O105     O      0.164850000000     0.224890000000     0.270370000000    -0.382387   
O106     O      0.164410000000     0.102850000000     0.272060000000    -0.38187    
O107     O      0.225430000000     0.164290000000     0.270430000000    -0.381868   
O108     O      0.103270000000     0.164000000000     0.271910000000    -0.38155    
O109     O      0.102380000000     0.162630000000     0.221660000000    -0.385009   
O110     O      0.224200000000     0.162170000000     0.220110000000    -0.38245    
O111     O      0.163170000000     0.101700000000     0.221810000000    -0.384617   
O112     O      0.162880000000     0.223620000000     0.220040000000    -0.381725   
O113     O      0.165800000000     0.768430000000     0.468560000000    -0.381367   
O114     O      0.163220000000     0.890380000000     0.469320000000    -0.383722   
O115     O      0.225300000000     0.830970000000     0.469420000000    -0.381951   
O116     O      0.103180000000     0.828360000000     0.468560000000    -0.381619   
O117     O      0.102700000000     0.829880000000     0.018820000000    -0.381554   
O118     O      0.224520000000     0.827160000000     0.019680000000    -0.379053   
O119     O      0.164710000000     0.889770000000     0.019570000000    -0.379569   
O120     O      0.161970000000     0.767790000000     0.018830000000    -0.379592   
O121     O      0.165750000000     0.768480000000     0.221270000000    -0.382223   
O122     O      0.162980000000     0.890310000000     0.222450000000    -0.384535   
O123     O      0.225090000000     0.831050000000     0.222420000000    -0.38284    
O124     O      0.103130000000     0.828270000000     0.221360000000    -0.382868   
O125     O      0.102290000000     0.829540000000     0.271610000000    -0.383613   
O126     O      0.224260000000     0.827000000000     0.272680000000    -0.381265   
O127     O      0.164300000000     0.889600000000     0.272710000000    -0.381628   
O128     O      0.161730000000     0.767500000000     0.271520000000    -0.382037   
O129     O      0.435900000000     0.862790000000     0.995280000000    -0.382599   
O130     O      0.557880000000     0.862470000000     0.998460000000    -0.38283    
O131     O      0.498620000000     0.862610000000     0.951260000000    -0.382727   
O132     O      0.495140000000     0.862620000000     0.542460000000    -0.383183   
O133     O      0.497180000000     0.795430000000     0.542480000000    -0.383062   
O134     O      0.496220000000     0.795440000000     0.951240000000    -0.382831   
O135     O      0.557680000000     0.795210000000     0.496230000000    -0.382292   
O136     O      0.435720000000     0.795530000000     0.497500000000    -0.382329   
O137     O      0.435610000000     0.862820000000     0.746380000000    -0.38235    
O138     O      0.557570000000     0.862740000000     0.747270000000    -0.382273   
O139     O      0.496880000000     0.862720000000     0.701220000000    -0.383322   
O140     O      0.496310000000     0.862720000000     0.792470000000    -0.383161   
O141     O      0.498470000000     0.795550000000     0.792440000000    -0.383195   
O142     O      0.494630000000     0.795550000000     0.701250000000    -0.383284   
O143     O      0.557520000000     0.795480000000     0.745070000000    -0.381966   
O144     O      0.435560000000     0.795560000000     0.748580000000    -0.381915   
O145     O      0.795970000000     0.557030000000     0.495680000000    -0.382212   
O146     O      0.795960000000     0.435070000000     0.497290000000    -0.38231    
O147     O      0.795490000000     0.496790000000     0.542140000000    -0.382989   
O148     O      0.796540000000     0.495310000000     0.950910000000    -0.383075   
O149     O      0.863720000000     0.497600000000     0.951230000000    -0.382532   
O150     O      0.862660000000     0.494500000000     0.542430000000    -0.383353   
O151     O      0.863230000000     0.435070000000     0.995350000000    -0.382599   
O152     O      0.863210000000     0.557040000000     0.998270000000    -0.383007   
O153     O      0.795900000000     0.556920000000     0.747220000000    -0.382173   
O154     O      0.796010000000     0.434910000000     0.747530000000    -0.382137   
O155     O      0.796610000000     0.496130000000     0.792590000000    -0.38465    
O156     O      0.795390000000     0.495710000000     0.701360000000    -0.381816   
O157     O      0.862610000000     0.495710000000     0.700810000000    -0.384562   
O158     O      0.863830000000     0.496260000000     0.792040000000    -0.382015   
O159     O      0.863320000000     0.434990000000     0.746240000000    -0.382226   
O160     O      0.863200000000     0.556970000000     0.745850000000    -0.382245   
O161     O      0.557600000000     0.196900000000     0.993710000000    -0.383211   
O162     O      0.435640000000     0.196670000000     0.991490000000    -0.382903   
O163     O      0.495480000000     0.196730000000     0.538200000000    -0.383132   
O164     O      0.497770000000     0.196730000000     0.946970000000    -0.38279    
O165     O      0.495560000000     0.129550000000     0.946970000000    -0.382759   
O166     O      0.497970000000     0.129560000000     0.538190000000    -0.38324    
O167     O      0.435770000000     0.129420000000     0.993780000000    -0.383123   
O168     O      0.557760000000     0.129650000000     0.991400000000    -0.382612   
O169     O      0.435780000000     0.196890000000     0.743880000000    -0.382075   
O170     O      0.557750000000     0.196540000000     0.741340000000    -0.382046   
O171     O      0.495450000000     0.196680000000     0.696980000000    -0.383112   
O172     O      0.498070000000     0.196670000000     0.788190000000    -0.383307   
O173     O      0.495530000000     0.129510000000     0.788200000000    -0.383285   
O174     O      0.497580000000     0.129500000000     0.696970000000    -0.383133   
O175     O      0.557540000000     0.129290000000     0.743630000000    -0.382177   
O176     O      0.435560000000     0.129640000000     0.741590000000    -0.382018   
O177     O      0.130020000000     0.557200000000     0.994860000000    -0.383303   
O178     O      0.130030000000     0.435240000000     0.993580000000    -0.383023   
O179     O      0.130070000000     0.495690000000     0.539830000000    -0.383246   
O180     O      0.130070000000     0.496740000000     0.948590000000    -0.382712   
O181     O      0.197250000000     0.494540000000     0.948610000000    -0.382735   
O182     O      0.197250000000     0.497900000000     0.539810000000    -0.383239   
O183     O      0.197280000000     0.435240000000     0.995790000000    -0.383114   
O184     O      0.197280000000     0.557200000000     0.992650000000    -0.382679   
O185     O      0.129980000000     0.557000000000     0.745600000000    -0.382102   
O186     O      0.130260000000     0.435030000000     0.742800000000    -0.381903   
O187     O      0.130140000000     0.494520000000     0.789800000000    -0.38309    
O188     O      0.130140000000     0.497520000000     0.698590000000    -0.38337    
O189     O      0.197330000000     0.495480000000     0.698580000000    -0.383143   
O190     O      0.197320000000     0.496910000000     0.789820000000    -0.383121   
O191     O      0.197520000000     0.435210000000     0.745030000000    -0.38227    
O192     O      0.197230000000     0.557170000000     0.743390000000    -0.382388   
O193     O      0.830810000000     0.768300000000     0.521400000000    -0.381988   
O194     O      0.830230000000     0.890220000000     0.520520000000    -0.384284   
O195     O      0.769280000000     0.829590000000     0.521830000000    -0.381399   
O196     O      0.891240000000     0.829420000000     0.519990000000    -0.384171   
O197     O      0.890000000000     0.828550000000     0.969740000000    -0.381669   
O198     O      0.768010000000     0.828040000000     0.971490000000    -0.381988   
O199     O      0.828850000000     0.889610000000     0.970270000000    -0.381483   
O200     O      0.828620000000     0.767540000000     0.971070000000    -0.381434   
O201     O      0.827510000000     0.768240000000     0.770580000000    -0.381856   
O202     O      0.830340000000     0.890130000000     0.769510000000    -0.384281   
O203     O      0.768240000000     0.830880000000     0.769790000000    -0.383307   
O204     O      0.890130000000     0.828040000000     0.770310000000    -0.383      
O205     O      0.890680000000     0.829400000000     0.720050000000    -0.383221   
O206     O      0.768640000000     0.826920000000     0.719530000000    -0.381027   
O207     O      0.828670000000     0.889450000000     0.719260000000    -0.381932   
O208     O      0.831180000000     0.767400000000     0.720300000000    -0.382187   
O209     O      0.830570000000     0.224150000000     0.969770000000    -0.380654   
O210     O      0.830130000000     0.102120000000     0.969870000000    -0.38291    
O211     O      0.769150000000     0.162740000000     0.968980000000    -0.380959   
O212     O      0.891050000000     0.163030000000     0.970660000000    -0.383534   
O213     O      0.889990000000     0.163390000000     0.520920000000    -0.382062   
O214     O      0.767920000000     0.163760000000     0.519330000000    -0.38228    
O215     O      0.828870000000     0.102320000000     0.520130000000    -0.382689   
O216     O      0.828480000000     0.224280000000     0.520110000000    -0.382752   
O217     O      0.831770000000     0.224560000000     0.720890000000    -0.382799   
O218     O      0.829120000000     0.102550000000     0.719550000000    -0.38224    
O219     O      0.769240000000     0.165130000000     0.719290000000    -0.381864   
O220     O      0.891110000000     0.162500000000     0.721150000000    -0.384417   
O221     O      0.889900000000     0.163740000000     0.771400000000    -0.381937   
O222     O      0.767860000000     0.160950000000     0.769530000000    -0.382449   
O223     O      0.830000000000     0.101660000000     0.769810000000    -0.384065   
O224     O      0.827220000000     0.223560000000     0.771110000000    -0.381662   
O225     O      0.163330000000     0.102150000000     0.520350000000    -0.383528   
O226     O      0.165870000000     0.224140000000     0.520770000000    -0.381192   
O227     O      0.103280000000     0.164170000000     0.521240000000    -0.381711   
O228     O      0.225380000000     0.161590000000     0.519830000000    -0.381969   
O229     O      0.224240000000     0.165170000000     0.969560000000    -0.381457   
O230     O      0.102410000000     0.162440000000     0.971000000000    -0.383953   
O231     O      0.161670000000     0.224520000000     0.970520000000    -0.382216   
O232     O      0.164430000000     0.102580000000     0.970090000000    -0.382109   
O233     O      0.164850000000     0.224890000000     0.770370000000    -0.382386   
O234     O      0.164410000000     0.102850000000     0.772060000000    -0.381865   
O235     O      0.225430000000     0.164290000000     0.770440000000    -0.381713   
O236     O      0.103270000000     0.164000000000     0.771910000000    -0.381536   
O237     O      0.102380000000     0.162630000000     0.721660000000    -0.385026   
O238     O      0.224200000000     0.162170000000     0.720110000000    -0.382423   
O239     O      0.163170000000     0.101700000000     0.721810000000    -0.384632   
O240     O      0.162880000000     0.223620000000     0.720040000000    -0.381766   
O241     O      0.165800000000     0.768430000000     0.968560000000    -0.380566   
O242     O      0.163220000000     0.890380000000     0.969320000000    -0.382899   
O243     O      0.225300000000     0.830970000000     0.969420000000    -0.381176   
O244     O      0.103180000000     0.828360000000     0.968570000000    -0.380998   
O245     O      0.102700000000     0.829880000000     0.518820000000    -0.384633   
O246     O      0.224520000000     0.827160000000     0.519690000000    -0.38216    
O247     O      0.164710000000     0.889770000000     0.519570000000    -0.382771   
O248     O      0.161970000000     0.767790000000     0.518830000000    -0.382797   
O249     O      0.165750000000     0.768480000000     0.721270000000    -0.382257   
O250     O      0.162980000000     0.890310000000     0.722450000000    -0.384551   
O251     O      0.225090000000     0.831050000000     0.722420000000    -0.382938   
O252     O      0.103130000000     0.828270000000     0.721360000000    -0.382889   
O253     O      0.102290000000     0.829540000000     0.771610000000    -0.383616   
O254     O      0.224260000000     0.827000000000     0.772670000000    -0.381418   
O255     O      0.164300000000     0.889600000000     0.772710000000    -0.38162    
O256     O      0.161730000000     0.767500000000     0.771520000000    -0.382043   


