data_structure

_audit_creation_method RASPA-1.0
_audit_creation_date 2023-6-5
_audit_author_name 'Poobodin Mano'

_cell_length_a    36.3585
_cell_length_b    36.3558
_cell_length_c    21.6681
_cell_angle_alpha 89.9815
_cell_angle_beta  90.0186
_cell_angle_gamma 119.979
_cell_volume      24809.8

_symmetry_cell_setting          triclinic
_symmetry_space_group_name_Hall 'P 1'
_symmetry_space_group_name_H-M  'P 1'
_symmetry_Int_Tables_number     1

_symmetry_equiv_pos_as_xyz 'x,y,z'

loop_
_atom_site_label
_atom_site_type_symbol
_atom_site_fract_x
_atom_site_fract_y
_atom_site_fract_z
_atom_site_charge
C1       C      0.912060000000     0.704730000000     0.675480000000     0.349226   
C2       C      0.750220000000     0.627300000000     0.605730000000     0.348885   
C3       C      0.809840000000     0.663700000000     0.758330000000     0.34935    
C4       C      0.852430000000     0.668330000000     0.522870000000     0.349553   
C5       C      0.083560000000     0.790440000000     0.772340000000     0.348559   
C6       C      0.245390000000     0.874780000000     0.842120000000     0.348917   
C7       C      0.185770000000     0.851580000000     0.689490000000     0.349436   
C8       C      0.143180000000     0.813630000000     0.924970000000     0.349649   
C9       C      0.416890000000     0.960500000000     0.939010000000     0.348682   
C10      C      0.578720000000     0.037960000000     0.008820000000     0.349116   
C11      C      0.519100000000     0.001550000000     0.856180000000     0.349462   
C12      C      0.476490000000     0.996910000000     0.091640000000     0.349602   
C13      C      0.245340000000     0.371370000000     0.342370000000     0.348612   
C14      C      0.083500000000     0.293870000000     0.272580000000     0.348586   
C15      C      0.143120000000     0.330300000000     0.425210000000     0.349413   
C16      C      0.185730000000     0.334940000000     0.189750000000     0.34938    
C17      C      0.912020000000     0.208100000000     0.175610000000     0.349377   
C18      C      0.750210000000     0.123710000000     0.105760000000     0.348841   
C19      C      0.809810000000     0.146930000000     0.258420000000     0.349478   
C20      C      0.852430000000     0.184880000000     0.022950000000     0.349864   
C21      C      0.578690000000     0.541550000000     0.508950000000     0.348564   
C22      C      0.416850000000     0.457160000000     0.439200000000     0.348955   
C23      C      0.476470000000     0.480380000000     0.591810000000     0.349517   
C24      C      0.519050000000     0.518320000000     0.356330000000     0.349696   
C25      C      0.122310000000     0.371370000000     0.842340000000     0.349003   
C26      C      0.206660000000     0.293870000000     0.772610000000     0.349032   
C27      C      0.183470000000     0.330280000000     0.925220000000     0.349871   
C28      C      0.145500000000     0.334960000000     0.689730000000     0.349587   
C29      C      0.369790000000     0.123700000000     0.605780000000     0.348899   
C30      C      0.292350000000     0.208110000000     0.675550000000     0.348969   
C31      C      0.328720000000     0.184900000000     0.522920000000     0.349739   
C32      C      0.333410000000     0.146920000000     0.758410000000     0.349566   
C33      C      0.036610000000     0.457160000000     0.939250000000     0.34793    
C34      C      0.959150000000     0.541570000000     0.008920000000     0.349109   
C35      C      0.995560000000     0.518350000000     0.856330000000     0.350508   
C36      C      0.000210000000     0.480370000000     0.091830000000     0.347181   
C37      C      0.703170000000     0.790430000000     0.272400000000     0.349027   
C38      C      0.625670000000     0.874790000000     0.342100000000     0.34892    
C39      C      0.662080000000     0.851590000000     0.189510000000     0.349481   
C40      C      0.666750000000     0.813620000000     0.425000000000     0.34954    
C41      C      0.788960000000     0.704730000000     0.175450000000     0.348922   
C42      C      0.873390000000     0.627310000000     0.105760000000     0.348881   
C43      C      0.850150000000     0.663690000000     0.258350000000     0.349582   
C44      C      0.812190000000     0.668350000000     0.022850000000     0.349766   
C45      C      0.539910000000     0.960510000000     0.439050000000     0.348922   
C46      C      0.455510000000     0.037960000000     0.508780000000     0.348868   
C47      C      0.478730000000     0.001560000000     0.356160000000     0.349504   
C48      C      0.516710000000     0.996900000000     0.591650000000     0.349541   
C49      C      0.292350000000     0.085030000000     0.175520000000     0.348955   
C50      C      0.369780000000     0.246880000000     0.105800000000     0.34862    
C51      C      0.333370000000     0.187240000000     0.258400000000     0.349453   
C52      C      0.328760000000     0.144670000000     0.022930000000     0.349906   
C53      C      0.455530000000     0.418400000000     0.008970000000     0.34928    
C54      C      0.539900000000     0.580230000000     0.939160000000     0.348967   
C55      C      0.516690000000     0.520620000000     0.091810000000     0.349704   
C56      C      0.478740000000     0.478010000000     0.856330000000     0.349639   
C57      C      0.206640000000     0.913520000000     0.272340000000     0.348759   
C58      C      0.122310000000     0.751690000000     0.342130000000     0.348836   
C59      C      0.145500000000     0.811300000000     0.189490000000     0.349395   
C60      C      0.183450000000     0.853900000000     0.424960000000     0.349552   
C61      C      0.036610000000     0.580230000000     0.439170000000     0.347764   
C62      C      0.959160000000     0.418400000000     0.508980000000     0.348794   
C63      C      0.995560000000     0.478010000000     0.356350000000     0.350462   
C64      C      0.000210000000     0.520630000000     0.591810000000     0.347215   
C65      C      0.873380000000     0.246880000000     0.605810000000     0.348883   
C66      C      0.788960000000     0.085040000000     0.675550000000     0.348918   
C67      C      0.812190000000     0.144680000000     0.522940000000     0.349787   
C68      C      0.850140000000     0.187240000000     0.758430000000     0.34967    
C69      C      0.703160000000     0.913530000000     0.772370000000     0.348751   
C70      C      0.625660000000     0.751690000000     0.842150000000     0.348887   
C71      C      0.662090000000     0.811300000000     0.689520000000     0.349441   
C72      C      0.666730000000     0.853910000000     0.924980000000     0.349846   
C73      C      0.722720000000     0.019920000000     0.711840000000    -0.00457342 
C74      C      0.766530000000     0.040890000000     0.699300000000    -0.0813843  
C75      C      0.789220000000     0.019760000000     0.711730000000    -0.0054097  
C76      C      0.768700000000     0.978760000000     0.736220000000    -0.00538462 
C77      C      0.724900000000     0.957680000000     0.748610000000    -0.0813423  
C78      C      0.702100000000     0.978700000000     0.736030000000    -0.00460972 
C79      C      0.893630000000     0.353160000000     0.545140000000    -0.00538314 
C80      C      0.937430000000     0.374250000000     0.532750000000    -0.0812244  
C81      C      0.960240000000     0.353230000000     0.545320000000    -0.00456045 
C82      C      0.939620000000     0.312010000000     0.569520000000    -0.00454169 
C83      C      0.895810000000     0.291040000000     0.582060000000    -0.0812819  
C84      C      0.873120000000     0.312160000000     0.569630000000    -0.00538844 
C85      C      0.122610000000     0.686440000000     0.378400000000    -0.00538615 
C86      C      0.099900000000     0.707550000000     0.365940000000    -0.0814255  
C87      C      0.056100000000     0.686570000000     0.378510000000    -0.00454849 
C88      C      0.035500000000     0.645370000000     0.402770000000    -0.00487946 
C89      C      0.058330000000     0.624370000000     0.415370000000    -0.0811099  
C90      C      0.102130000000     0.645460000000     0.402940000000    -0.005568   
C91      C      0.539630000000     0.645480000000     0.902900000000    -0.00539017 
C92      C      0.562330000000     0.624360000000     0.915360000000    -0.0814967  
C93      C      0.606130000000     0.645330000000     0.902810000000    -0.00452016 
C94      C      0.626740000000     0.686540000000     0.878560000000    -0.00462304 
C95      C      0.603930000000     0.707550000000     0.865950000000    -0.0813571  
C96      C      0.560130000000     0.686470000000     0.878360000000    -0.00544847 
C97      C      0.272860000000     0.978660000000     0.236040000000    -0.00461352 
C98      C      0.229050000000     0.957670000000     0.248570000000    -0.0813073  
C99      C      0.206340000000     0.978780000000     0.236140000000    -0.00544561 
C100     C      0.226830000000     0.019780000000     0.211660000000    -0.00540591 
C101     C      0.270640000000     0.040880000000     0.199270000000    -0.0814063  
C102     C      0.293460000000     0.019880000000     0.211850000000    -0.00453038 
C103     C      0.455810000000     0.353130000000     0.045180000000    -0.00537763 
C104     C      0.433100000000     0.374250000000     0.032740000000    -0.0814323  
C105     C      0.389290000000     0.353260000000     0.045260000000    -0.00451311 
C106     C      0.368690000000     0.312040000000     0.069470000000    -0.00462788 
C107     C      0.391510000000     0.291040000000     0.082040000000    -0.0811903  
C108     C      0.435310000000     0.312130000000     0.069660000000    -0.00543976 
C109     C      0.626600000000     0.785570000000     0.523480000000    -0.00467925 
C110     C      0.665680000000     0.806440000000     0.492230000000    -0.0820142  
C111     C      0.703480000000     0.824430000000     0.526580000000    -0.00427299 
C112     C      0.702240000000     0.823370000000     0.591050000000    -0.00467125 
C113     C      0.663170000000     0.805200000000     0.622300000000    -0.0820005  
C114     C      0.625360000000     0.785390000000     0.587950000000    -0.00430021 
C115     C      0.626590000000     0.841840000000     0.023460000000    -0.00390651 
C116     C      0.665660000000     0.860020000000     0.992200000000    -0.0827567  
C117     C      0.703470000000     0.879830000000     0.026550000000    -0.00376811 
C118     C      0.702230000000     0.879650000000     0.091020000000    -0.00492014 
C119     C      0.663160000000     0.858780000000     0.122280000000    -0.0817709  
C120     C      0.625350000000     0.840780000000     0.087930000000    -0.00463123 
C121     C      0.702100000000     0.724210000000     0.236040000000    -0.0045056  
C122     C      0.724900000000     0.768020000000     0.248610000000    -0.0814475  
C123     C      0.768700000000     0.790730000000     0.236190000000    -0.00529835 
C124     C      0.789210000000     0.770250000000     0.211660000000    -0.0054756  
C125     C      0.766520000000     0.726450000000     0.199230000000    -0.0812291  
C126     C      0.722720000000     0.703620000000     0.211800000000    -0.00463486 
C127     C      0.626750000000     0.941010000000     0.378460000000    -0.00455013 
C128     C      0.603940000000     0.897200000000     0.365880000000    -0.0814306  
C129     C      0.560140000000     0.874500000000     0.378310000000    -0.00535243 
C130     C      0.539640000000     0.894990000000     0.402840000000    -0.00544198 
C131     C      0.562340000000     0.938790000000     0.415270000000    -0.0813353  
C132     C      0.606140000000     0.961610000000     0.402700000000    -0.00460012 
C133     C      0.958830000000     0.507540000000     0.754760000000    -0.00389401 
C134     C      0.996640000000     0.525520000000     0.789110000000    -0.0816839  
C135     C      0.035710000000     0.546380000000     0.757850000000    -0.00499805 
C136     C      0.036950000000     0.546540000000     0.693380000000    -0.00578859 
C137     C      0.999140000000     0.526740000000     0.659030000000    -0.0796527  
C138     C      0.960070000000     0.508590000000     0.690280000000    -0.0054483  
C139     C      0.036950000000     0.491170000000     0.193410000000    -0.00582508 
C140     C      0.999140000000     0.473190000000     0.159060000000    -0.0795909  
C141     C      0.960070000000     0.452290000000     0.190310000000    -0.00544527 
C142     C      0.958830000000     0.452100000000     0.254790000000    -0.00390387 
C143     C      0.996640000000     0.471910000000     0.289130000000    -0.0816256  
C144     C      0.035710000000     0.490100000000     0.257880000000    -0.00499205 
C145     C      0.960240000000     0.607800000000     0.045240000000    -0.00445307 
C146     C      0.937430000000     0.563990000000     0.032670000000    -0.0814159  
C147     C      0.893630000000     0.541290000000     0.045080000000    -0.00530597 
C148     C      0.873130000000     0.561790000000     0.069580000000    -0.00537906 
C149     C      0.895820000000     0.605590000000     0.082000000000    -0.0813125  
C150     C      0.939620000000     0.628410000000     0.069450000000    -0.00451756 
C151     C      0.293270000000     0.118890000000     0.856890000000    -0.00471348 
C152     C      0.332340000000     0.139750000000     0.825630000000    -0.0820575  
C153     C      0.370150000000     0.157750000000     0.859990000000    -0.00432664 
C154     C      0.368910000000     0.156710000000     0.924460000000    -0.0045918  
C155     C      0.329840000000     0.138550000000     0.955710000000    -0.0823063  
C156     C      0.292030000000     0.118730000000     0.921370000000    -0.00422762 
C157     C      0.291980000000     0.174080000000     0.421350000000    -0.00423489 
C158     C      0.329790000000     0.192080000000     0.455700000000    -0.0821544  
C159     C      0.368860000000     0.212980000000     0.424440000000    -0.00460634 
C160     C      0.370100000000     0.213160000000     0.359960000000    -0.00433258 
C161     C      0.332290000000     0.193340000000     0.325620000000    -0.0819729  
C162     C      0.293220000000     0.175140000000     0.356870000000    -0.00471512 
C163     C      0.368690000000     0.057470000000     0.569410000000    -0.00451821 
C164     C      0.391500000000     0.101280000000     0.581980000000    -0.0814484  
C165     C      0.435300000000     0.123980000000     0.569540000000    -0.00538225 
C166     C      0.455790000000     0.103480000000     0.545000000000    -0.005414   
C167     C      0.433090000000     0.059680000000     0.532570000000    -0.0813611  
C168     C      0.389290000000     0.036860000000     0.545150000000    -0.00461854 
C169     C      0.122610000000     0.436910000000     0.878540000000    -0.00536578 
C170     C      0.099900000000     0.393110000000     0.866120000000    -0.0815008  
C171     C      0.056100000000     0.370300000000     0.878690000000    -0.00456297 
C172     C      0.035500000000     0.390910000000     0.902920000000    -0.00483613 
C173     C      0.058320000000     0.434720000000     0.915480000000    -0.0811869  
C174     C      0.102120000000     0.457410000000     0.903060000000    -0.00556458 
C175     C      0.272870000000     0.294950000000     0.736210000000    -0.00456993 
C176     C      0.229070000000     0.272140000000     0.748800000000    -0.0814315  
C177     C      0.206360000000     0.228340000000     0.736370000000    -0.00541491 
C178     C      0.226850000000     0.207840000000     0.711810000000    -0.0054124  
C179     C      0.270640000000     0.230540000000     0.699360000000    -0.0814114  
C180     C      0.293460000000     0.274340000000     0.711940000000    -0.0045615  
C181     C      0.489580000000     0.452090000000     0.754800000000    -0.00430119 
C182     C      0.471570000000     0.471920000000     0.789110000000    -0.0821248  
C183     C      0.450700000000     0.490120000000     0.757820000000    -0.00458836 
C184     C      0.450540000000     0.491200000000     0.693340000000    -0.00432191 
C185     C      0.470360000000     0.473200000000     0.659030000000    -0.0820101  
C186     C      0.488530000000     0.452280000000     0.690330000000    -0.00468487 
C187     C      0.544780000000     0.508550000000     0.190310000000    -0.00465982 
C188     C      0.523870000000     0.526730000000     0.159030000000    -0.0820772  
C189     C      0.505870000000     0.546550000000     0.193350000000    -0.00426492 
C190     C      0.506940000000     0.546380000000     0.257820000000    -0.00465097 
C191     C      0.525150000000     0.525500000000     0.289110000000    -0.0820957  
C192     C      0.544970000000     0.507500000000     0.254790000000    -0.00426424 
C193     C      0.840380000000     0.212980000000     0.924440000000    -0.00457599 
C194     C      0.858550000000     0.192070000000     0.955730000000    -0.0822745  
C195     C      0.878350000000     0.174050000000     0.921410000000    -0.00415218 
C196     C      0.878180000000     0.175120000000     0.856930000000    -0.00463662 
C197     C      0.857320000000     0.193340000000     0.825650000000    -0.0820395  
C198     C      0.839330000000     0.213170000000     0.859970000000    -0.00429337 
C199     C      0.783900000000     0.157780000000     0.359960000000    -0.00432001 
C200     C      0.803720000000     0.139770000000     0.325640000000    -0.0819893  
C201     C      0.821920000000     0.118880000000     0.356930000000    -0.00470346 
C202     C      0.823000000000     0.118730000000     0.421410000000    -0.00420859 
C203     C      0.805000000000     0.138560000000     0.455720000000    -0.082118   
C204     C      0.784100000000     0.156740000000     0.424430000000    -0.00461246 
C205     C      0.156300000000     0.371700000000     0.588160000000    -0.00428841 
C206     C      0.138310000000     0.333890000000     0.622510000000    -0.0821164  
C207     C      0.117410000000     0.294810000000     0.591250000000    -0.00470428 
C208     C      0.117220000000     0.293570000000     0.526780000000    -0.00435792 
C209     C      0.137030000000     0.331380000000     0.492430000000    -0.0820342  
C210     C      0.155220000000     0.370460000000     0.523680000000    -0.00473903 
C211     C      0.173690000000     0.294790000000     0.091280000000    -0.00499943 
C212     C      0.191850000000     0.333870000000     0.122530000000    -0.0817267  
C213     C      0.211650000000     0.371680000000     0.088180000000    -0.00469127 
C214     C      0.211500000000     0.370430000000     0.023710000000    -0.00383866 
C215     C      0.190640000000     0.331360000000     0.992450000000    -0.0828351  
C216     C      0.172650000000     0.293550000000     0.026800000000    -0.00375766 
C217     C      0.018270000000     0.228330000000     0.236390000000    -0.00698578 
C218     C      0.039360000000     0.272130000000     0.248790000000    -0.0805481  
C219     C      0.018350000000     0.294950000000     0.236190000000    -0.00626745 
C220     C      0.977140000000     0.274330000000     0.211950000000    -0.00292026 
C221     C      0.956170000000     0.230520000000     0.199410000000    -0.0821649  
C222     C      0.977290000000     0.207820000000     0.211860000000    -0.00380737 
C223     C      0.310500000000     0.370300000000     0.378710000000    -0.0045459  
C224     C      0.289490000000     0.393100000000     0.366130000000    -0.0813039  
C225     C      0.310570000000     0.436910000000     0.378520000000    -0.00541355 
C226     C      0.351570000000     0.457420000000     0.403010000000    -0.00541448 
C227     C      0.372700000000     0.434730000000     0.415440000000    -0.0813575  
C228     C      0.351720000000     0.390910000000     0.402910000000    -0.00462516 
C229     C      0.544800000000     0.037040000000     0.690140000000    -0.00465949 
C230     C      0.523900000000     0.997970000000     0.658880000000    -0.0820104  
C231     C      0.505910000000     0.960150000000     0.693230000000    -0.00431037 
C232     C      0.506990000000     0.961390000000     0.757710000000    -0.00469866 
C233     C      0.525190000000     0.000470000000     0.788960000000    -0.0819967  
C234     C      0.545000000000     0.038280000000     0.754610000000    -0.00431038 
C235     C      0.488510000000     0.037050000000     0.190110000000    -0.00458883 
C236     C      0.470360000000     0.997980000000     0.158860000000    -0.0820668  
C237     C      0.450560000000     0.960170000000     0.193200000000    -0.00425023 
C238     C      0.450710000000     0.961410000000     0.257680000000    -0.00473096 
C239     C      0.471560000000     0.000490000000     0.288930000000    -0.0819685  
C240     C      0.489540000000     0.038300000000     0.254580000000    -0.00434102 
C241     C      0.643960000000     0.103490000000     0.045000000000    -0.00535083 
C242     C      0.622870000000     0.059680000000     0.032600000000    -0.0814099  
C243     C      0.643870000000     0.036870000000     0.045190000000    -0.00446169 
C244     C      0.685080000000     0.057470000000     0.069420000000    -0.00468898 
C245     C      0.706060000000     0.101290000000     0.081960000000    -0.081219   
C246     C      0.684950000000     0.123990000000     0.069510000000    -0.00544088 
C247     C      0.173690000000     0.879650000000     0.590980000000    -0.00470427 
C248     C      0.191880000000     0.858760000000     0.622260000000    -0.0819693  
C249     C      0.211700000000     0.840760000000     0.587950000000    -0.00433699 
C250     C      0.211520000000     0.841820000000     0.523470000000    -0.00464128 
C251     C      0.190630000000     0.860010000000     0.492190000000    -0.0820407  
C252     C      0.172630000000     0.879830000000     0.526500000000    -0.0042831  
C253     C      0.155270000000     0.785560000000     0.023470000000    -0.00396246 
C254     C      0.137070000000     0.806450000000     0.992190000000    -0.0827659  
C255     C      0.117260000000     0.824460000000     0.026510000000    -0.00383897 
C256     C      0.117430000000     0.823390000000     0.090980000000    -0.00495127 
C257     C      0.138320000000     0.805200000000     0.122270000000    -0.0818419  
C258     C      0.156330000000     0.785380000000     0.087950000000    -0.00465352 
C259     C      0.351650000000     0.894980000000     0.902830000000    -0.00543593 
C260     C      0.372740000000     0.938780000000     0.915230000000    -0.0812664  
C261     C      0.351740000000     0.961610000000     0.902650000000    -0.00465835 
C262     C      0.310530000000     0.941010000000     0.878430000000    -0.00460129 
C263     C      0.289540000000     0.897190000000     0.865890000000    -0.0813538  
C264     C      0.310650000000     0.874480000000     0.878330000000    -0.0054443  
C265     C      0.783930000000     0.626970000000     0.859900000000    -0.00441548 
C266     C      0.803740000000     0.664780000000     0.825560000000    -0.0818672  
C267     C      0.821930000000     0.703850000000     0.856810000000    -0.00474305 
C268     C      0.822990000000     0.705090000000     0.921280000000    -0.00416453 
C269     C      0.805000000000     0.667280000000     0.955630000000    -0.0823224  
C270     C      0.784120000000     0.628210000000     0.924370000000    -0.00452873 
C271     C      0.840390000000     0.628190000000     0.424400000000    -0.00465412 
C272     C      0.858550000000     0.667260000000     0.455650000000    -0.081967   
C273     C      0.878350000000     0.705080000000     0.421310000000    -0.00425704 
C274     C      0.878190000000     0.703840000000     0.356840000000    -0.00464035 
C275     C      0.857320000000     0.664760000000     0.325580000000    -0.0819752  
C276     C      0.839340000000     0.626950000000     0.359920000000    -0.00426247 
C277     C      0.685050000000     0.628400000000     0.569410000000    -0.00461401 
C278     C      0.706060000000     0.605580000000     0.581970000000    -0.081281   
C279     C      0.684960000000     0.561770000000     0.569590000000    -0.00543023 
C280     C      0.643960000000     0.541270000000     0.545120000000    -0.00544494 
C281     C      0.622840000000     0.563970000000     0.532700000000    -0.0812526  
C282     C      0.643830000000     0.607790000000     0.545230000000    -0.00463732 
C283     C      0.977310000000     0.770250000000     0.711640000000    -0.00362284 
C284     C      0.956200000000     0.726450000000     0.699250000000    -0.0823161  
C285     C      0.977200000000     0.703620000000     0.711820000000    -0.0028859  
C286     C      0.018420000000     0.724220000000     0.736020000000    -0.00632109 
C287     C      0.039410000000     0.768030000000     0.748560000000    -0.0804577  
C288     C      0.018300000000     0.790740000000     0.736130000000    -0.00717269 
Cu1      Cu     0.833330000000     0.700960000000     0.634820000000     0.840302   
Cu2      Cu     0.828940000000     0.631080000000     0.646380000000     0.840527   
Cu3      Cu     0.162270000000     0.865350000000     0.812970000000     0.840237   
Cu4      Cu     0.166680000000     0.799870000000     0.801480000000     0.840289   
Cu5      Cu     0.499990000000     0.034170000000     0.968140000000     0.840247   
Cu6      Cu     0.495610000000     0.964290000000     0.979690000000     0.840057   
Cu7      Cu     0.166600000000     0.367550000000     0.301690000000     0.840283   
Cu8      Cu     0.162240000000     0.297690000000     0.313260000000     0.840241   
Cu9      Cu     0.828900000000     0.198640000000     0.146410000000     0.840458   
Cu10     Cu     0.833330000000     0.133170000000     0.134950000000     0.840469   
Cu11     Cu     0.495550000000     0.532090000000     0.479810000000     0.840425   
Cu12     Cu     0.499980000000     0.466620000000     0.468330000000     0.840312   
Cu13     Cu     0.131750000000     0.297690000000     0.813240000000     0.840334   
Cu14     Cu     0.197220000000     0.367550000000     0.801710000000     0.840612   
Cu15     Cu     0.296140000000     0.133180000000     0.634910000000     0.840336   
Cu16     Cu     0.366000000000     0.198630000000     0.646420000000     0.840514   
Cu17     Cu     0.962950000000     0.466630000000     0.968320000000     0.841106   
Cu18     Cu     0.032820000000     0.532090000000     0.979850000000     0.838592   
Cu19     Cu     0.629490000000     0.799870000000     0.301490000000     0.840434   
Cu20     Cu     0.699350000000     0.865340000000     0.313020000000     0.840531   
Cu21     Cu     0.798450000000     0.631080000000     0.146360000000     0.840469   
Cu22     Cu     0.863890000000     0.700960000000     0.134850000000     0.840697   
Cu23     Cu     0.464990000000     0.964300000000     0.479670000000     0.840356   
Cu24     Cu     0.530440000000     0.034170000000     0.468150000000     0.840553   
Cu25     Cu     0.366000000000     0.168150000000     0.146440000000     0.840465   
Cu26     Cu     0.296130000000     0.163760000000     0.134880000000     0.840231   
Cu27     Cu     0.530450000000     0.497100000000     0.968340000000     0.840349   
Cu28     Cu     0.464980000000     0.501530000000     0.979810000000     0.840191   
Cu29     Cu     0.197210000000     0.830400000000     0.301490000000     0.840445   
Cu30     Cu     0.131740000000     0.834810000000     0.312970000000     0.840211   
Cu31     Cu     0.032820000000     0.501500000000     0.479860000000     0.838844   
Cu32     Cu     0.962950000000     0.497130000000     0.468310000000     0.8412     
Cu33     Cu     0.863900000000     0.163740000000     0.634940000000     0.840494   
Cu34     Cu     0.798450000000     0.168190000000     0.646420000000     0.840502   
Cu35     Cu     0.699340000000     0.834780000000     0.813040000000     0.8405     
Cu36     Cu     0.629480000000     0.830430000000     0.801470000000     0.840411   
H1       H      0.704290000000     0.035300000000     0.702970000000     0.046066   
H2       H      0.823020000000     0.034970000000     0.703000000000     0.0439635  
H3       H      0.787270000000     0.963500000000     0.744970000000     0.0439233  
H4       H      0.668300000000     0.963360000000     0.744870000000     0.0460735  
H5       H      0.875050000000     0.368410000000     0.536390000000     0.0439065  
H6       H      0.994040000000     0.368580000000     0.536490000000     0.0463022  
H7       H      0.958050000000     0.296630000000     0.578380000000     0.0462357  
H8       H      0.839310000000     0.296950000000     0.578360000000     0.043904   
H9       H      0.156410000000     0.701660000000     0.369650000000     0.0438947  
H10      H      0.037650000000     0.701930000000     0.369620000000     0.0458967  
H11      H      0.001700000000     0.630010000000     0.411620000000     0.0458358  
H12      H      0.120710000000     0.630220000000     0.411720000000     0.0439265  
H13      H      0.505830000000     0.630270000000     0.911640000000     0.0438732  
H14      H      0.624570000000     0.629960000000     0.911690000000     0.046037   
H15      H      0.660540000000     0.701880000000     0.869710000000     0.0460765  
H16      H      0.541560000000     0.701710000000     0.869580000000     0.0439002  
H17      H      0.291310000000     0.963290000000     0.244910000000     0.0460924  
H18      H      0.172530000000     0.963550000000     0.244860000000     0.0438548  
H19      H      0.208250000000     0.035010000000     0.202900000000     0.0438771  
H20      H      0.327260000000     0.035240000000     0.203020000000     0.0460843  
H21      H      0.489610000000     0.368360000000     0.036460000000     0.0439591  
H22      H      0.370850000000     0.368630000000     0.036390000000     0.0460916  
H23      H      0.334880000000     0.296680000000     0.078290000000     0.0461088  
H24      H      0.453890000000     0.296890000000     0.078430000000     0.0439446  
H25      H      0.596930000000     0.771560000000     0.498210000000     0.0429963  
H26      H      0.734030000000     0.840570000000     0.503650000000     0.0425925  
H27      H      0.731910000000     0.839020000000     0.616320000000     0.0430134  
H28      H      0.594810000000     0.771000000000     0.610880000000     0.0425701  
H29      H      0.596920000000     0.826190000000     0.998190000000     0.042677   
H30      H      0.734020000000     0.894220000000     0.003620000000     0.0425429  
H31      H      0.731900000000     0.893660000000     0.116290000000     0.0430977  
H32      H      0.594800000000     0.824640000000     0.110860000000     0.042692   
H33      H      0.668300000000     0.705760000000     0.244900000000     0.046073   
H34      H      0.787270000000     0.824540000000     0.244950000000     0.0439356  
H35      H      0.823010000000     0.788830000000     0.202910000000     0.0440015  
H36      H      0.704290000000     0.669820000000     0.202930000000     0.0461086  
H37      H      0.660550000000     0.959450000000     0.369600000000     0.0460778  
H38      H      0.541570000000     0.840690000000     0.369560000000     0.0438967  
H39      H      0.505840000000     0.876410000000     0.411590000000     0.0439255  
H40      H      0.624570000000     0.995410000000     0.411560000000     0.0460793  
H41      H      0.928280000000     0.491410000000     0.777690000000     0.0424878  
H42      H      0.065380000000     0.560380000000     0.783110000000     0.0429531  
H43      H      0.067500000000     0.560920000000     0.670440000000     0.0428628  
H44      H      0.930400000000     0.492940000000     0.665030000000     0.0432545  
H45      H      0.067490000000     0.507330000000     0.170470000000     0.0429044  
H46      H      0.930400000000     0.438290000000     0.165050000000     0.0432821  
H47      H      0.928280000000     0.437710000000     0.277720000000     0.0425123  
H48      H      0.065380000000     0.505750000000     0.283140000000     0.0429629  
H49      H      0.994040000000     0.626240000000     0.036390000000     0.0463015  
H50      H      0.875060000000     0.507480000000     0.036330000000     0.0439472  
H51      H      0.839320000000     0.543210000000     0.078320000000     0.0439374  
H52      H      0.958060000000     0.662210000000     0.078300000000     0.0462469  
H53      H      0.263600000000     0.104880000000     0.831630000000     0.0429664  
H54      H      0.400700000000     0.173880000000     0.837050000000     0.0425616  
H55      H      0.398580000000     0.172370000000     0.949720000000     0.0429142  
H56      H      0.261480000000     0.104350000000     0.944290000000     0.0424665  
H57      H      0.261430000000     0.157920000000     0.444280000000     0.042527   
H58      H      0.398530000000     0.226990000000     0.449700000000     0.0429861  
H59      H      0.400650000000     0.227570000000     0.337030000000     0.0425893  
H60      H      0.263550000000     0.159480000000     0.331610000000     0.0429819  
H61      H      0.334890000000     0.039030000000     0.578280000000     0.0460603  
H62      H      0.453880000000     0.157780000000     0.578290000000     0.0439002  
H63      H      0.489590000000     0.122060000000     0.536240000000     0.0439067  
H64      H      0.370850000000     0.003070000000     0.536290000000     0.0460991  
H65      H      0.156410000000     0.455480000000     0.869790000000     0.0438615  
H66      H      0.037650000000     0.336500000000     0.869830000000     0.0458768  
H67      H      0.001700000000     0.372480000000     0.911780000000     0.0457972  
H68      H      0.120700000000     0.491220000000     0.911810000000     0.043906   
H69      H      0.291320000000     0.328750000000     0.745080000000     0.0460613  
H70      H      0.172560000000     0.209770000000     0.745140000000     0.0438352  
H71      H      0.208260000000     0.174040000000     0.703050000000     0.0438509  
H72      H      0.327260000000     0.292780000000     0.703070000000     0.0460599  
H73      H      0.505720000000     0.437680000000     0.777760000000     0.0425621  
H74      H      0.436680000000     0.505790000000     0.783050000000     0.0429568  
H75      H      0.436150000000     0.507370000000     0.670380000000     0.0425786  
H76      H      0.504200000000     0.438270000000     0.665090000000     0.0430014  
H77      H      0.558800000000     0.492890000000     0.165070000000     0.0430136  
H78      H      0.489700000000     0.560940000000     0.170390000000     0.0425884  
H79      H      0.491270000000     0.560390000000     0.283060000000     0.0429927  
H80      H      0.559380000000     0.491350000000     0.277740000000     0.0425689  
H81      H      0.824730000000     0.227010000000     0.949670000000     0.0429352  
H82      H      0.892740000000     0.157870000000     0.944370000000     0.0425774  
H83      H      0.892190000000     0.159440000000     0.831700000000     0.0430625  
H84      H      0.823200000000     0.227600000000     0.837010000000     0.0425783  
H85      H      0.769490000000     0.173930000000     0.337000000000     0.042588   
H86      H      0.837580000000     0.104860000000     0.331700000000     0.0430659  
H87      H      0.839160000000     0.104330000000     0.444370000000     0.0426162  
H88      H      0.770090000000     0.172410000000     0.449660000000     0.0429826  
H89      H      0.172460000000     0.402250000000     0.611090000000     0.0425381  
H90      H      0.103400000000     0.265140000000     0.616520000000     0.0429013  
H91      H      0.102810000000     0.263020000000     0.503850000000     0.0424822  
H92      H      0.170880000000     0.400130000000     0.498420000000     0.0429763  
H93      H      0.158040000000     0.265120000000     0.116540000000     0.0430442  
H94      H      0.226030000000     0.402230000000     0.111110000000     0.0427028  
H95      H      0.225500000000     0.400110000000     0.998440000000     0.0426495  
H96      H      0.156520000000     0.263000000000     0.003870000000     0.0424442  
H97      H      0.033520000000     0.209750000000     0.245170000000     0.0440897  
H98      H      0.033690000000     0.328750000000     0.245030000000     0.0462962  
H99      H      0.961770000000     0.292770000000     0.203070000000     0.045862   
H100     H      0.962070000000     0.174020000000     0.203130000000     0.0437294  
H101     H      0.295160000000     0.336490000000     0.369880000000     0.046059   
H102     H      0.295320000000     0.455490000000     0.369760000000     0.0438965  
H103     H      0.366790000000     0.491230000000     0.411730000000     0.0439017  
H104     H      0.367100000000     0.372480000000     0.411780000000     0.0460927  
H105     H      0.558810000000     0.066710000000     0.664870000000     0.042997   
H106     H      0.489740000000     0.929600000000     0.670300000000     0.0425761  
H107     H      0.491330000000     0.931720000000     0.782970000000     0.0429921  
H108     H      0.559410000000     0.068830000000     0.777540000000     0.0425642  
H109     H      0.504160000000     0.066730000000     0.164840000000     0.0429907  
H110     H      0.436200000000     0.929620000000     0.170270000000     0.0425865  
H111     H      0.436710000000     0.931740000000     0.282940000000     0.0430154  
H112     H      0.505670000000     0.068850000000     0.277510000000     0.0425904  
H113     H      0.628720000000     0.122070000000     0.036230000000     0.0439357  
H114     H      0.628520000000     0.003060000000     0.036360000000     0.0460758  
H115     H      0.700450000000     0.039030000000     0.078300000000     0.0461306  
H116     H      0.700160000000     0.157800000000     0.078250000000     0.0439335  
H117     H      0.158020000000     0.893670000000     0.616220000000     0.0429375  
H118     H      0.226100000000     0.824600000000     0.610900000000     0.0425815  
H119     H      0.225540000000     0.826150000000     0.498240000000     0.0429828  
H120     H      0.156470000000     0.894240000000     0.503550000000     0.0424976  
H121     H      0.170930000000     0.771540000000     0.998230000000     0.0426645  
H122     H      0.102850000000     0.840610000000     0.003550000000     0.0424246  
H123     H      0.103420000000     0.839060000000     0.116220000000     0.0429822  
H124     H      0.172480000000     0.770970000000     0.110900000000     0.042667   
H125     H      0.366880000000     0.876390000000     0.911590000000     0.0438828  
H126     H      0.367100000000     0.995410000000     0.911480000000     0.0460725  
H127     H      0.295160000000     0.959450000000     0.869560000000     0.0460577  
H128     H      0.295430000000     0.840680000000     0.869590000000     0.0438962  
H129     H      0.769540000000     0.596420000000     0.836960000000     0.0425928  
H130     H      0.837590000000     0.733530000000     0.831550000000     0.0430499  
H131     H      0.839140000000     0.735640000000     0.944220000000     0.0425459  
H132     H      0.770110000000     0.598530000000     0.949630000000     0.042893   
H133     H      0.824730000000     0.598520000000     0.449660000000     0.0430166  
H134     H      0.892730000000     0.735630000000     0.444240000000     0.0426679  
H135     H      0.892190000000     0.733510000000     0.331580000000     0.0430933  
H136     H      0.823200000000     0.596400000000     0.336990000000     0.042593   
H137     H      0.700410000000     0.662200000000     0.578240000000     0.0460928  
H138     H      0.700200000000     0.543190000000     0.578340000000     0.0439128  
H139     H      0.628730000000     0.507460000000     0.536390000000     0.0439211  
H140     H      0.628460000000     0.626230000000     0.536370000000     0.0460914  
H141     H      0.962070000000     0.788840000000     0.702890000000     0.0436499  
H142     H      0.961840000000     0.669820000000     0.702980000000     0.0458339  
H143     H      0.033780000000     0.705770000000     0.744880000000     0.0462854  
H144     H      0.033530000000     0.824550000000     0.744870000000     0.0441141  
O1       O      0.894840000000     0.726970000000     0.661320000000    -0.384516   
O2       O      0.771130000000     0.667960000000     0.609490000000    -0.381415   
O3       O      0.816660000000     0.695730000000     0.725180000000    -0.38312    
O4       O      0.850050000000     0.699600000000     0.545810000000    -0.382723   
O5       O      0.845610000000     0.636310000000     0.556030000000    -0.383239   
O6       O      0.812220000000     0.632430000000     0.735390000000    -0.382746   
O7       O      0.767430000000     0.605060000000     0.619880000000    -0.384616   
O8       O      0.891130000000     0.664070000000     0.671710000000    -0.38151    
O9       O      0.100770000000     0.829880000000     0.786470000000    -0.384618   
O10      O      0.224470000000     0.894520000000     0.838310000000    -0.381498   
O11      O      0.178950000000     0.876790000000     0.722610000000    -0.383197   
O12      O      0.145550000000     0.847280000000     0.901990000000    -0.382823   
O13      O      0.150000000000     0.788430000000     0.891840000000    -0.383326   
O14      O      0.183410000000     0.817940000000     0.712460000000    -0.382747   
O15      O      0.228180000000     0.835330000000     0.827980000000    -0.384536   
O16      O      0.104480000000     0.770690000000     0.776140000000    -0.381401   
O17      O      0.437800000000     0.001170000000     0.942780000000    -0.381325   
O18      O      0.561500000000     0.060190000000     0.994640000000    -0.38477    
O19      O      0.516720000000     0.032820000000     0.879120000000    -0.382685   
O20      O      0.483310000000     0.028930000000     0.058480000000    -0.383173   
O21      O      0.478880000000     0.965650000000     0.068700000000    -0.382674   
O22      O      0.512290000000     0.969530000000     0.889340000000    -0.383202   
O23      O      0.557810000000     0.997300000000     0.005040000000    -0.381304   
O24      O      0.434110000000     0.938270000000     0.953180000000    -0.384574   
O25      O      0.228100000000     0.393590000000     0.328190000000    -0.384484   
O26      O      0.104400000000     0.334530000000     0.276350000000    -0.381364   
O27      O      0.149920000000     0.362320000000     0.392040000000    -0.383172   
O28      O      0.183330000000     0.366200000000     0.212680000000    -0.382715   
O29      O      0.178920000000     0.302920000000     0.222910000000    -0.383177   
O30      O      0.145510000000     0.299040000000     0.402270000000    -0.38278    
O31      O      0.100730000000     0.271650000000     0.286750000000    -0.384552   
O32      O      0.224430000000     0.330700000000     0.338600000000    -0.38129    
O33      O      0.891090000000     0.227830000000     0.171780000000    -0.381571   
O34      O      0.767400000000     0.163150000000     0.119890000000    -0.384561   
O35      O      0.812160000000     0.180560000000     0.235430000000    -0.382736   
O36      O      0.845590000000     0.210080000000     0.056070000000    -0.383234   
O37      O      0.850070000000     0.151250000000     0.045930000000    -0.382784   
O38      O      0.816650000000     0.121730000000     0.225300000000    -0.383184   
O39      O      0.771140000000     0.103970000000     0.109580000000    -0.381416   
O40      O      0.894830000000     0.168660000000     0.161470000000    -0.3846     
O41      O      0.557750000000     0.561290000000     0.505140000000    -0.381277   
O42      O      0.434050000000     0.496600000000     0.453330000000    -0.384656   
O43      O      0.478840000000     0.514020000000     0.568840000000    -0.382789   
O44      O      0.512220000000     0.543520000000     0.389460000000    -0.383296   
O45      O      0.516690000000     0.484690000000     0.379310000000    -0.38287    
O46      O      0.483310000000     0.455180000000     0.558690000000    -0.383186   
O47      O      0.437780000000     0.437420000000     0.443000000000    -0.381432   
O48      O      0.561490000000     0.502100000000     0.494820000000    -0.384397   
O49      O      0.102570000000     0.330710000000     0.838560000000    -0.381629   
O50      O      0.167230000000     0.271650000000     0.786760000000    -0.384722   
O51      O      0.149840000000     0.299030000000     0.902260000000    -0.382996   
O52      O      0.120300000000     0.302940000000     0.722880000000    -0.383298   
O53      O      0.179130000000     0.366210000000     0.712690000000    -0.382858   
O54      O      0.208660000000     0.362300000000     0.892070000000    -0.383376   
O55      O      0.226400000000     0.334530000000     0.776390000000    -0.381569   
O56      O      0.161740000000     0.393590000000     0.828180000000    -0.384698   
O57      O      0.329130000000     0.103970000000     0.609570000000    -0.38145    
O58      O      0.270120000000     0.168680000000     0.661400000000    -0.384652   
O59      O      0.297470000000     0.151270000000     0.545890000000    -0.382843   
O60      O      0.301390000000     0.121730000000     0.725270000000    -0.383262   
O61      O      0.364670000000     0.180550000000     0.735440000000    -0.382806   
O62      O      0.360740000000     0.210080000000     0.556060000000    -0.383302   
O63      O      0.333010000000     0.227840000000     0.671750000000    -0.381496   
O64      O      0.392020000000     0.163140000000     0.619930000000    -0.384628   
O65      O      0.995950000000     0.437430000000     0.943020000000    -0.380707   
O66      O      0.936930000000     0.502130000000     0.994770000000    -0.38481    
O67      O      0.964300000000     0.484720000000     0.879290000000    -0.382911   
O68      O      0.968190000000     0.455190000000     0.058690000000    -0.382159   
O69      O      0.031470000000     0.514010000000     0.068880000000    -0.382168   
O70      O      0.027580000000     0.543530000000     0.889480000000    -0.383899   
O71      O      0.999810000000     0.561300000000     0.005150000000    -0.380626   
O72      O      0.058840000000     0.496590000000     0.953390000000    -0.38439    
O73      O      0.662510000000     0.770680000000     0.276180000000    -0.381476   
O74      O      0.603450000000     0.835350000000     0.327960000000    -0.384608   
O75      O      0.630830000000     0.817960000000     0.212460000000    -0.382783   
O76      O      0.634740000000     0.788430000000     0.391850000000    -0.383279   
O77      O      0.698010000000     0.847260000000     0.402040000000    -0.382761   
O78      O      0.694100000000     0.876790000000     0.222660000000    -0.383186   
O79      O      0.666330000000     0.894530000000     0.338330000000    -0.381446   
O80      O      0.725390000000     0.829860000000     0.286550000000    -0.384692   
O81      O      0.769230000000     0.664070000000     0.171670000000    -0.381466   
O82      O      0.833950000000     0.605070000000     0.119900000000    -0.384617   
O83      O      0.816530000000     0.632430000000     0.235390000000    -0.382831   
O84      O      0.787000000000     0.636330000000     0.056000000000    -0.383223   
O85      O      0.845810000000     0.699620000000     0.045820000000    -0.382719   
O86      O      0.875340000000     0.695720000000     0.225210000000    -0.383168   
O87      O      0.893110000000     0.667970000000     0.109540000000    -0.381383   
O88      O      0.828390000000     0.726970000000     0.161310000000    -0.384671   
O89      O      0.500480000000     0.938270000000     0.453200000000    -0.384628   
O90      O      0.435780000000     0.997300000000     0.504990000000    -0.381424   
O91      O      0.453540000000     0.969540000000     0.389310000000    -0.38322    
O92      O      0.483070000000     0.965640000000     0.568700000000    -0.382739   
O93      O      0.541890000000     0.028920000000     0.558510000000    -0.383283   
O94      O      0.512350000000     0.032830000000     0.379130000000    -0.382777   
O95      O      0.494950000000     0.060190000000     0.494630000000    -0.38461    
O96      O      0.559640000000     0.001170000000     0.442830000000    -0.38154    
O97      O      0.333010000000     0.105950000000     0.171770000000    -0.381438   
O98      O      0.392020000000     0.229660000000     0.119970000000    -0.384483   
O99      O      0.364640000000     0.184870000000     0.235460000000    -0.382734   
O100     O      0.360780000000     0.151490000000     0.056090000000    -0.383302   
O101     O      0.297500000000     0.147050000000     0.045860000000    -0.382849   
O102     O      0.301350000000     0.180430000000     0.225240000000    -0.383149   
O103     O      0.329120000000     0.225970000000     0.109560000000    -0.381276   
O104     O      0.270120000000     0.102250000000     0.161360000000    -0.384644   
O105     O      0.494960000000     0.435590000000     0.994840000000    -0.384883   
O106     O      0.559640000000     0.559290000000     0.942980000000    -0.381449   
O107     O      0.541880000000     0.513780000000     0.058690000000    -0.383214   
O108     O      0.512370000000     0.480370000000     0.879320000000    -0.382798   
O109     O      0.453550000000     0.484850000000     0.889460000000    -0.383274   
O110     O      0.483060000000     0.518260000000     0.068830000000    -0.382721   
O111     O      0.500470000000     0.563030000000     0.953300000000    -0.384685   
O112     O      0.435790000000     0.439330000000     0.005160000000    -0.381402   
O113     O      0.226390000000     0.892590000000     0.276140000000    -0.381383   
O114     O      0.161750000000     0.768890000000     0.327990000000    -0.384548   
O115     O      0.179140000000     0.813670000000     0.212470000000    -0.382717   
O116     O      0.208650000000     0.847070000000     0.391840000000    -0.383273   
O117     O      0.149810000000     0.851530000000     0.401990000000    -0.382843   
O118     O      0.120300000000     0.818130000000     0.222620000000    -0.383252   
O119     O      0.102560000000     0.772610000000     0.338320000000    -0.381499   
O120     O      0.167200000000     0.896310000000     0.286470000000    -0.384617   
O121     O      0.058840000000     0.563010000000     0.453350000000    -0.384249   
O122     O      0.999820000000     0.439300000000     0.505210000000    -0.380705   
O123     O      0.027580000000     0.484820000000     0.389510000000    -0.383875   
O124     O      0.031470000000     0.518240000000     0.568870000000    -0.382304   
O125     O      0.968190000000     0.513810000000     0.558650000000    -0.38231    
O126     O      0.964300000000     0.480390000000     0.379300000000    -0.382931   
O127     O      0.936930000000     0.435620000000     0.494810000000    -0.384574   
O128     O      0.995950000000     0.559320000000     0.442950000000    -0.380564   
O129     O      0.893110000000     0.225940000000     0.609610000000    -0.381381   
O130     O      0.828400000000     0.102230000000     0.661420000000    -0.384538   
O131     O      0.845820000000     0.147030000000     0.545910000000    -0.382779   
O132     O      0.875330000000     0.180400000000     0.725300000000    -0.383205   
O133     O      0.816520000000     0.184900000000     0.735450000000    -0.382834   
O134     O      0.787010000000     0.151520000000     0.556070000000    -0.383397   
O135     O      0.769240000000     0.105990000000     0.671750000000    -0.381481   
O136     O      0.833940000000     0.229690000000     0.619940000000    -0.384624   
O137     O      0.725380000000     0.896290000000     0.786540000000    -0.384526   
O138     O      0.666320000000     0.772590000000     0.838380000000    -0.381485   
O139     O      0.694100000000     0.818100000000     0.722690000000    -0.383207   
O140     O      0.697990000000     0.851520000000     0.902050000000    -0.382895   
O141     O      0.634720000000     0.847110000000     0.891820000000    -0.383373   
O142     O      0.630830000000     0.813700000000     0.712460000000    -0.382709   
O143     O      0.603440000000     0.768920000000     0.827970000000    -0.384618   
O144     O      0.662500000000     0.892630000000     0.776130000000    -0.381377   


