data_structure

_audit_creation_method RASPA-1.0
_audit_creation_date 2023-5-22
_audit_author_name 'Poobodin Mano'

_cell_length_a    44.4364
_cell_length_b    44.437
_cell_length_c    33.2556
_cell_angle_alpha 90
_cell_angle_beta  90
_cell_angle_gamma 120.001
_cell_volume      56868.9

_symmetry_cell_setting          triclinic
_symmetry_space_group_name_Hall 'P 1'
_symmetry_space_group_name_H-M  'P 1'
_symmetry_Int_Tables_number     1

_symmetry_equiv_pos_as_xyz 'x,y,z'

loop_
_atom_site_label
_atom_site_type_symbol
_atom_site_fract_x
_atom_site_fract_y
_atom_site_fract_z
_atom_site_charge
C1       C      0.492910000000     0.495280000000     0.249840000000     0.349636   
C2       C      0.992930000000     0.995300000000     0.409460000000     0.34013    
C3       C      0.433120000000     0.435480000000     0.329720000000     0.349204   
C4       C      0.052750000000     0.055120000000     0.329610000000     0.349013   
C5       C      0.492930000000     0.245290000000     0.249870000000     0.349728   
C6       C      0.492940000000     0.245300000000     0.409570000000     0.349481   
C7       C      0.052750000000     0.305110000000     0.329710000000     0.348768   
C8       C      0.433120000000     0.185480000000     0.329720000000     0.349002   
C9       C      0.242950000000     0.995320000000     0.249750000000     0.34915    
C10      C      0.242900000000     0.995290000000     0.409460000000     0.349329   
C11      C      0.183120000000     0.435480000000     0.329690000000     0.349147   
C12      C      0.302740000000     0.055120000000     0.329640000000     0.348996   
C13      C      0.242910000000     0.245290000000     0.409570000000     0.349619   
C14      C      0.242960000000     0.245310000000     0.249870000000     0.349742   
C15      C      0.183120000000     0.185490000000     0.329690000000     0.349082   
C16      C      0.302750000000     0.305110000000     0.329740000000     0.348938   
C17      C      0.492920000000     0.995310000000     0.076130000000     0.34907    
C18      C      0.492940000000     0.995300000000     0.916420000000     0.349075   
C19      C      0.052740000000     0.995300000000     0.996290000000     0.348633   
C20      C      0.433110000000     0.995300000000     0.996260000000     0.348681   
C21      C      0.992950000000     0.245290000000     0.076240000000     0.337837   
C22      C      0.492970000000     0.245300000000     0.916530000000     0.349506   
C23      C      0.052770000000     0.245290000000     0.996400000000     0.348744   
C24      C      0.433140000000     0.245290000000     0.996370000000     0.349119   
C25      C      0.242950000000     0.995310000000     0.076130000000     0.34918    
C26      C      0.242910000000     0.995290000000     0.916420000000     0.34929    
C27      C      0.183120000000     0.995300000000     0.996290000000     0.349021   
C28      C      0.302750000000     0.995300000000     0.996260000000     0.348649   
C29      C      0.242970000000     0.245300000000     0.076240000000     0.349186   
C30      C      0.242940000000     0.245280000000     0.916530000000     0.349527   
C31      C      0.302770000000     0.245290000000     0.996370000000     0.348893   
C32      C      0.183140000000     0.245290000000     0.996400000000     0.349238   
C33      C      0.492980000000     0.435500000000     0.663040000000     0.349204   
C34      C      0.492970000000     0.055130000000     0.662960000000     0.349198   
C35      C      0.492960000000     0.995320000000     0.583090000000     0.34911    
C36      C      0.492970000000     0.995300000000     0.742790000000     0.349457   
C37      C      0.492970000000     0.185500000000     0.663030000000     0.349218   
C38      C      0.492980000000     0.305130000000     0.663060000000     0.348942   
C39      C      0.492970000000     0.245320000000     0.583200000000     0.349389   
C40      C      0.492980000000     0.245310000000     0.742900000000     0.349435   
C41      C      0.242900000000     0.435470000000     0.663050000000     0.348935   
C42      C      0.242880000000     0.055090000000     0.662950000000     0.349094   
C43      C      0.242880000000     0.995280000000     0.583090000000     0.349143   
C44      C      0.242890000000     0.995270000000     0.742790000000     0.34944    
C45      C      0.242890000000     0.185460000000     0.663030000000     0.348927   
C46      C      0.242900000000     0.305100000000     0.663060000000     0.349191   
C47      C      0.242890000000     0.245290000000     0.583200000000     0.349476   
C48      C      0.242900000000     0.245280000000     0.742900000000     0.349353   
C49      C      0.274360000000     0.401740000000     0.663070000000    -0.00533334 
C50      C      0.242900000000     0.402110000000     0.663060000000    -0.081565   
C51      C      0.211450000000     0.370280000000     0.663050000000    -0.00525677 
C52      C      0.211450000000     0.338830000000     0.663070000000    -0.0051081  
C53      C      0.242900000000     0.338450000000     0.663060000000    -0.0818267  
C54      C      0.274350000000     0.370280000000     0.663050000000    -0.00513461 
C55      C      0.274340000000     0.120280000000     0.662970000000    -0.00524116 
C56      C      0.242880000000     0.088450000000     0.662970000000    -0.081644   
C57      C      0.211430000000     0.088830000000     0.663000000000    -0.00517445 
C58      C      0.211430000000     0.120280000000     0.663000000000    -0.00519024 
C59      C      0.242890000000     0.152110000000     0.663020000000    -0.0816839  
C60      C      0.274340000000     0.151730000000     0.663010000000    -0.00521143 
C61      C      0.461530000000     0.370320000000     0.663050000000    -0.00515298 
C62      C      0.492980000000     0.402150000000     0.663060000000    -0.0818435  
C63      C      0.524440000000     0.401770000000     0.663070000000    -0.00514334 
C64      C      0.524440000000     0.370320000000     0.663050000000    -0.00533288 
C65      C      0.492980000000     0.338490000000     0.663070000000    -0.0815918  
C66      C      0.461530000000     0.338870000000     0.663070000000    -0.00529559 
C67      C      0.524420000000     0.120310000000     0.662970000000    -0.00516927 
C68      C      0.492970000000     0.088480000000     0.662980000000    -0.0818054  
C69      C      0.461520000000     0.088860000000     0.663000000000    -0.00514562 
C70      C      0.461520000000     0.120310000000     0.663000000000    -0.00523108 
C71      C      0.492970000000     0.152140000000     0.663020000000    -0.0817184  
C72      C      0.524420000000     0.151760000000     0.663010000000    -0.00522192 
C73      C      0.270070000000     0.272650000000     0.850730000000    -0.00403812 
C74      C      0.242930000000     0.245280000000     0.872130000000    -0.0817718  
C75      C      0.215770000000     0.217910000000     0.850740000000    -0.0039857  
C76      C      0.215540000000     0.218130000000     0.808710000000    -0.00407758 
C77      C      0.242910000000     0.245280000000     0.787310000000    -0.0816063  
C78      C      0.270280000000     0.272430000000     0.808700000000    -0.00414095 
C79      C      0.215750000000     0.467930000000     0.850710000000    -0.00406162 
C80      C      0.242900000000     0.995290000000     0.872020000000    -0.0819506  
C81      C      0.270050000000     0.022650000000     0.850610000000    -0.00384265 
C82      C      0.270260000000     0.022430000000     0.808590000000    -0.00383752 
C83      C      0.242890000000     0.995270000000     0.787190000000    -0.0820075  
C84      C      0.215530000000     0.468160000000     0.808680000000    -0.00396549 
C85      C      0.367960000000     0.213840000000     0.996380000000    -0.00525744 
C86      C      0.399790000000     0.245290000000     0.996360000000    -0.0820049  
C87      C      0.399410000000     0.276750000000     0.996350000000    -0.00526727 
C88      C      0.367960000000     0.276750000000     0.996370000000    -0.00545414 
C89      C      0.336130000000     0.245290000000     0.996360000000    -0.0817835  
C90      C      0.336500000000     0.213840000000     0.996360000000    -0.00540521 
C91      C      0.117960000000     0.276750000000     0.996420000000    -0.00538642 
C92      C      0.086130000000     0.245290000000     0.996410000000    -0.0805616  
C93      C      0.086500000000     0.213840000000     0.996400000000    -0.00525101 
C94      C      0.117950000000     0.213840000000     0.996420000000    -0.00464737 
C95      C      0.149790000000     0.245290000000     0.996410000000    -0.0819052  
C96      C      0.149410000000     0.276750000000     0.996390000000    -0.00493855 
C97      C      0.020130000000     0.272670000000     0.850740000000     0.00400696 
C98      C      0.492980000000     0.245300000000     0.872130000000    -0.0818197  
C99      C      0.465830000000     0.217930000000     0.850730000000    -0.00402399 
C100     C      0.465610000000     0.218150000000     0.808700000000    -0.00415704 
C101     C      0.492980000000     0.245300000000     0.787310000000    -0.0816644  
C102     C      0.020350000000     0.272450000000     0.808710000000     0.0039384  
C103     C      0.399380000000     0.026760000000     0.996240000000    -0.0051084  
C104     C      0.399760000000     0.995300000000     0.996250000000    -0.082139   
C105     C      0.367920000000     0.463850000000     0.996350000000    -0.00531927 
C106     C      0.336470000000     0.463850000000     0.996330000000    -0.00531924 
C107     C      0.336100000000     0.995300000000     0.996250000000    -0.0821331  
C108     C      0.367930000000     0.026760000000     0.996260000000    -0.00512421 
C109     C      0.117930000000     0.026760000000     0.996300000000    -0.00516071 
C110     C      0.086100000000     0.995300000000     0.996290000000    -0.0808047  
C111     C      0.086470000000     0.463850000000     0.996370000000    -0.00517463 
C112     C      0.117920000000     0.463850000000     0.996390000000    -0.00473649 
C113     C      0.149760000000     0.995300000000     0.996290000000    -0.0820046  
C114     C      0.149380000000     0.026760000000     0.996280000000    -0.00473431 
C115     C      0.465810000000     0.467950000000     0.850700000000    -0.00411961 
C116     C      0.492950000000     0.995300000000     0.872020000000    -0.0819104  
C117     C      0.020100000000     0.022670000000     0.850630000000     0.00412609 
C118     C      0.020330000000     0.022450000000     0.808590000000     0.00422983 
C119     C      0.492960000000     0.995300000000     0.787190000000    -0.0820802  
C120     C      0.465590000000     0.468180000000     0.808670000000    -0.00405989 
C121     C      0.270050000000     0.245060000000     0.475370000000    -0.00411784 
C122     C      0.242900000000     0.245290000000     0.453970000000    -0.0817574  
C123     C      0.215750000000     0.245510000000     0.475360000000    -0.00406506 
C124     C      0.215530000000     0.245060000000     0.517400000000    -0.00393229 
C125     C      0.242890000000     0.245290000000     0.538800000000    -0.081781   
C126     C      0.270260000000     0.245510000000     0.517400000000    -0.00403331 
C127     C      0.242750000000     0.272460000000     0.184060000000    -0.0038125  
C128     C      0.242970000000     0.245310000000     0.205470000000    -0.0817351  
C129     C      0.243190000000     0.218160000000     0.184070000000    -0.00379952 
C130     C      0.242750000000     0.217940000000     0.142040000000    -0.00400718 
C131     C      0.242970000000     0.245310000000     0.120640000000    -0.0812256  
C132     C      0.243200000000     0.272680000000     0.142030000000    -0.00401206 
C133     C      0.270040000000     0.995060000000     0.475260000000    -0.00405653 
C134     C      0.242890000000     0.995280000000     0.453860000000    -0.0817819  
C135     C      0.215770000000     0.495500000000     0.475340000000    -0.00407709 
C136     C      0.215540000000     0.495050000000     0.517370000000    -0.00395697 
C137     C      0.242880000000     0.995280000000     0.538690000000    -0.081646   
C138     C      0.270260000000     0.995500000000     0.517290000000    -0.00418864 
C139     C      0.242740000000     0.022470000000     0.183950000000    -0.0036431  
C140     C      0.242960000000     0.995320000000     0.205350000000    -0.0818105  
C141     C      0.243160000000     0.468150000000     0.184040000000    -0.00383252 
C142     C      0.242720000000     0.467930000000     0.142010000000    -0.00403457 
C143     C      0.242950000000     0.995320000000     0.120530000000    -0.0815423  
C144     C      0.243180000000     0.022690000000     0.141920000000    -0.00373427 
C145     C      0.465810000000     0.245540000000     0.475380000000    -0.00404338 
C146     C      0.492950000000     0.245310000000     0.453970000000    -0.0818131  
C147     C      0.020100000000     0.245090000000     0.475360000000     0.00399502 
C148     C      0.020330000000     0.245540000000     0.517400000000     0.00398511 
C149     C      0.492970000000     0.245320000000     0.538800000000    -0.0817193  
C150     C      0.465590000000     0.245100000000     0.517410000000    -0.00414585 
C151     C      0.399380000000     0.120300000000     0.329710000000    -0.00518972 
C152     C      0.399760000000     0.152130000000     0.329710000000    -0.0817168  
C153     C      0.367930000000     0.151750000000     0.329690000000    -0.00518009 
C154     C      0.336480000000     0.120300000000     0.329690000000    -0.00524359 
C155     C      0.336100000000     0.088470000000     0.329660000000    -0.0816706  
C156     C      0.367930000000     0.088850000000     0.329670000000    -0.00518821 
C157     C      0.117940000000     0.338840000000     0.329690000000    -0.00531914 
C158     C      0.086110000000     0.338470000000     0.329710000000    -0.0803415  
C159     C      0.086480000000     0.370290000000     0.329720000000    -0.00515881 
C160     C      0.117940000000     0.401740000000     0.329690000000    -0.00452447 
C161     C      0.149770000000     0.402120000000     0.329700000000    -0.0816636  
C162     C      0.149390000000     0.370290000000     0.329710000000    -0.00479971 
C163     C      0.992710000000     0.272440000000     0.184070000000    -0.00539101 
C164     C      0.492930000000     0.245290000000     0.205470000000    -0.0818781  
C165     C      0.493150000000     0.218140000000     0.184070000000    -0.00385961 
C166     C      0.492710000000     0.217920000000     0.142040000000    -0.00415458 
C167     C      0.492940000000     0.245290000000     0.120640000000    -0.0812971  
C168     C      0.993160000000     0.272660000000     0.142030000000    -0.0060582  
C169     C      0.965800000000     0.995530000000     0.475260000000    -0.00401096 
C170     C      0.492940000000     0.995310000000     0.453860000000    -0.0818342  
C171     C      0.520130000000     0.495090000000     0.475340000000    -0.00415929 
C172     C      0.520350000000     0.495540000000     0.517370000000    -0.00392471 
C173     C      0.492960000000     0.995320000000     0.538690000000    -0.0816962  
C174     C      0.965580000000     0.995090000000     0.517300000000    -0.00399612 
C175     C      0.336490000000     0.370300000000     0.329760000000    -0.00530102 
C176     C      0.336110000000     0.338470000000     0.329750000000    -0.0815868  
C177     C      0.367940000000     0.338840000000     0.329730000000    -0.00531107 
C178     C      0.399390000000     0.370290000000     0.329750000000    -0.0051406  
C179     C      0.399770000000     0.402130000000     0.329730000000    -0.0818507  
C180     C      0.367940000000     0.401750000000     0.329730000000    -0.00513246 
C181     C      0.086480000000     0.120310000000     0.329650000000    -0.00505382 
C182     C      0.086100000000     0.088470000000     0.329630000000    -0.0805318  
C183     C      0.117930000000     0.088850000000     0.329630000000    -0.00517727 
C184     C      0.149380000000     0.120300000000     0.329670000000    -0.00483798 
C185     C      0.149760000000     0.152130000000     0.329670000000    -0.0815383  
C186     C      0.117930000000     0.151760000000     0.329650000000    -0.00467017 
C187     C      0.492700000000     0.022460000000     0.183960000000    -0.00381871 
C188     C      0.492930000000     0.995310000000     0.205350000000    -0.0818431  
C189     C      0.993130000000     0.468130000000     0.184040000000    -0.00591399 
C190     C      0.992680000000     0.467910000000     0.142010000000    -0.00553191 
C191     C      0.492920000000     0.995310000000     0.120530000000    -0.0816439  
C192     C      0.493140000000     0.022680000000     0.141920000000    -0.00383127 
C193     C      0.492930000000     0.995310000000     0.249760000000     0.349186   
C194     C      0.992970000000     0.495310000000     0.409550000000     0.340452   
C195     C      0.433110000000     0.935490000000     0.329600000000     0.349228   
C196     C      0.052760000000     0.555110000000     0.329660000000     0.348973   
C197     C      0.492910000000     0.745280000000     0.249730000000     0.34965    
C198     C      0.492960000000     0.745310000000     0.409430000000     0.349467   
C199     C      0.052750000000     0.805120000000     0.329560000000     0.349007   
C200     C      0.433120000000     0.685480000000     0.329610000000     0.349102   
C201     C      0.242940000000     0.495290000000     0.249840000000     0.349424   
C202     C      0.242930000000     0.495290000000     0.409550000000     0.349518   
C203     C      0.183110000000     0.935490000000     0.329570000000     0.34915    
C204     C      0.302750000000     0.555110000000     0.329690000000     0.348923   
C205     C      0.242930000000     0.745300000000     0.409430000000     0.349396   
C206     C      0.242940000000     0.745300000000     0.249730000000     0.349678   
C207     C      0.183120000000     0.685480000000     0.329580000000     0.349308   
C208     C      0.302750000000     0.805120000000     0.329590000000     0.34894    
C209     C      0.492910000000     0.495290000000     0.076210000000     0.349419   
C210     C      0.492940000000     0.495320000000     0.916510000000     0.34932    
C211     C      0.052740000000     0.495310000000     0.996370000000     0.348898   
C212     C      0.433110000000     0.495310000000     0.996350000000     0.348972   
C213     C      0.992900000000     0.745280000000     0.076100000000     0.337851   
C214     C      0.492930000000     0.745300000000     0.916400000000     0.349333   
C215     C      0.052730000000     0.745290000000     0.996260000000     0.348744   
C216     C      0.433100000000     0.745290000000     0.996230000000     0.349122   
C217     C      0.242930000000     0.495300000000     0.076210000000     0.349249   
C218     C      0.242910000000     0.495310000000     0.916510000000     0.349601   
C219     C      0.183110000000     0.495300000000     0.996380000000     0.349152   
C220     C      0.302740000000     0.495300000000     0.996350000000     0.348992   
C221     C      0.242930000000     0.745300000000     0.076100000000     0.349483   
C222     C      0.242900000000     0.745290000000     0.916400000000     0.349369   
C223     C      0.302730000000     0.745290000000     0.996240000000     0.34872    
C224     C      0.183100000000     0.745290000000     0.996260000000     0.348977   
C225     C      0.492960000000     0.935490000000     0.662930000000     0.349173   
C226     C      0.492980000000     0.555130000000     0.663010000000     0.349221   
C227     C      0.492990000000     0.495310000000     0.583170000000     0.34963    
C228     C      0.492980000000     0.495330000000     0.742880000000     0.349437   
C229     C      0.492980000000     0.685500000000     0.662930000000     0.349193   
C230     C      0.492970000000     0.805130000000     0.662910000000     0.349045   
C231     C      0.492980000000     0.745310000000     0.583060000000     0.349598   
C232     C      0.492970000000     0.745310000000     0.742770000000     0.349423   
C233     C      0.242880000000     0.935460000000     0.662930000000     0.348965   
C234     C      0.242900000000     0.555100000000     0.663000000000     0.349032   
C235     C      0.242910000000     0.495270000000     0.583170000000     0.349627   
C236     C      0.242900000000     0.495300000000     0.742880000000     0.349437   
C237     C      0.242890000000     0.685470000000     0.662930000000     0.349302   
C238     C      0.242890000000     0.805090000000     0.662910000000     0.349183   
C239     C      0.242900000000     0.745280000000     0.583060000000     0.349581   
C240     C      0.242890000000     0.745280000000     0.742770000000     0.349642   
C241     C      0.274340000000     0.901730000000     0.662930000000    -0.0052651  
C242     C      0.242880000000     0.902100000000     0.662920000000    -0.0816206  
C243     C      0.211430000000     0.870270000000     0.662910000000    -0.00520686 
C244     C      0.211430000000     0.838820000000     0.662920000000    -0.00518665 
C245     C      0.242880000000     0.838450000000     0.662910000000    -0.0816453  
C246     C      0.274340000000     0.870280000000     0.662900000000    -0.00525825 
C247     C      0.274350000000     0.620290000000     0.662970000000    -0.00521033 
C248     C      0.242900000000     0.588450000000     0.662980000000    -0.0817174  
C249     C      0.211440000000     0.588830000000     0.662980000000    -0.00518266 
C250     C      0.211440000000     0.620280000000     0.662940000000    -0.00521401 
C251     C      0.242900000000     0.652110000000     0.662940000000    -0.0816646  
C252     C      0.274350000000     0.651730000000     0.662970000000    -0.00523048 
C253     C      0.461510000000     0.870310000000     0.662910000000    -0.00522916 
C254     C      0.492970000000     0.902140000000     0.662920000000    -0.0817807  
C255     C      0.524420000000     0.901760000000     0.662930000000    -0.00518103 
C256     C      0.524420000000     0.870310000000     0.662900000000    -0.0052251  
C257     C      0.492970000000     0.838480000000     0.662910000000    -0.0817431  
C258     C      0.461510000000     0.838860000000     0.662920000000    -0.00522452 
C259     C      0.524430000000     0.620320000000     0.662970000000    -0.00523548 
C260     C      0.492980000000     0.588490000000     0.662990000000    -0.0817231  
C261     C      0.461530000000     0.588860000000     0.662980000000    -0.0052199  
C262     C      0.461520000000     0.620310000000     0.662940000000    -0.00520604 
C263     C      0.492980000000     0.652150000000     0.662940000000    -0.0818175  
C264     C      0.524430000000     0.651770000000     0.662970000000    -0.00517534 
C265     C      0.270040000000     0.772660000000     0.850600000000    -0.00415289 
C266     C      0.242890000000     0.745290000000     0.872000000000    -0.0816465  
C267     C      0.215740000000     0.717920000000     0.850600000000    -0.00406526 
C268     C      0.215520000000     0.718140000000     0.808570000000    -0.0039492  
C269     C      0.242890000000     0.745290000000     0.787170000000    -0.0818418  
C270     C      0.270260000000     0.772430000000     0.808560000000    -0.0039866  
C271     C      0.215750000000     0.967910000000     0.850630000000    -0.0040305  
C272     C      0.242910000000     0.495310000000     0.872110000000    -0.0817475  
C273     C      0.270050000000     0.522680000000     0.850710000000    -0.00406254 
C274     C      0.270270000000     0.522450000000     0.808680000000    -0.00406563 
C275     C      0.242900000000     0.495300000000     0.787280000000    -0.0817465  
C276     C      0.215520000000     0.968130000000     0.808600000000    -0.00397264 
C277     C      0.367910000000     0.713840000000     0.996240000000    -0.00524021 
C278     C      0.399750000000     0.745290000000     0.996230000000    -0.0820066  
C279     C      0.399370000000     0.776750000000     0.996220000000    -0.0052733  
C280     C      0.367920000000     0.776750000000     0.996240000000    -0.00542643 
C281     C      0.336090000000     0.745290000000     0.996230000000    -0.0817241  
C282     C      0.336460000000     0.713840000000     0.996210000000    -0.00542843 
C283     C      0.117920000000     0.776750000000     0.996280000000    -0.00538154 
C284     C      0.086090000000     0.745290000000     0.996270000000    -0.0805698  
C285     C      0.086460000000     0.713840000000     0.996260000000    -0.00523102 
C286     C      0.117910000000     0.713840000000     0.996280000000    -0.00469156 
C287     C      0.149750000000     0.745290000000     0.996270000000    -0.0818169  
C288     C      0.149370000000     0.776750000000     0.996260000000    -0.00494897 
C289     C      0.020100000000     0.772680000000     0.850600000000     0.00390552 
C290     C      0.492940000000     0.745310000000     0.871990000000    -0.0816373  
C291     C      0.465800000000     0.717940000000     0.850590000000    -0.0041338  
C292     C      0.465590000000     0.718160000000     0.808560000000    -0.00404562 
C293     C      0.492960000000     0.745310000000     0.787170000000    -0.0817853  
C294     C      0.020330000000     0.772460000000     0.808570000000     0.00401283 
C295     C      0.399380000000     0.526760000000     0.996330000000    -0.00536588 
C296     C      0.399750000000     0.495300000000     0.996340000000    -0.081894   
C297     C      0.367930000000     0.963850000000     0.996270000000    -0.00531357 
C298     C      0.336480000000     0.963850000000     0.996240000000    -0.00531197 
C299     C      0.336090000000     0.495300000000     0.996340000000    -0.0819483  
C300     C      0.367930000000     0.526760000000     0.996350000000    -0.00531043 
C301     C      0.117930000000     0.526760000000     0.996390000000    -0.00532804 
C302     C      0.086090000000     0.495300000000     0.996380000000    -0.0806674  
C303     C      0.086480000000     0.963850000000     0.996290000000    -0.00519623 
C304     C      0.117930000000     0.963850000000     0.996310000000    -0.0047043  
C305     C      0.149750000000     0.495300000000     0.996380000000    -0.0817721  
C306     C      0.149380000000     0.526760000000     0.996370000000    -0.00498398 
C307     C      0.465810000000     0.967930000000     0.850620000000    -0.00412184 
C308     C      0.492950000000     0.495320000000     0.872110000000    -0.0817004  
C309     C      0.020100000000     0.522690000000     0.850720000000     0.00397522 
C310     C      0.020340000000     0.522470000000     0.808690000000     0.00398308 
C311     C      0.492970000000     0.495330000000     0.787280000000    -0.0817789  
C312     C      0.465590000000     0.968150000000     0.808590000000    -0.00402326 
C313     C      0.270060000000     0.745070000000     0.475240000000    -0.00408589 
C314     C      0.242920000000     0.745290000000     0.453840000000    -0.0816315  
C315     C      0.215760000000     0.745510000000     0.475230000000    -0.00411224 
C316     C      0.215530000000     0.745060000000     0.517260000000    -0.00398334 
C317     C      0.242900000000     0.745280000000     0.538660000000    -0.0818045  
C318     C      0.270280000000     0.745510000000     0.517270000000    -0.00405804 
C319     C      0.242710000000     0.772450000000     0.183930000000    -0.00384782 
C320     C      0.242940000000     0.745300000000     0.205330000000    -0.0816945  
C321     C      0.243160000000     0.718150000000     0.183930000000    -0.00385267 
C322     C      0.242710000000     0.717930000000     0.141900000000    -0.0039669  
C323     C      0.242930000000     0.745300000000     0.120500000000    -0.0813312  
C324     C      0.243160000000     0.772670000000     0.141900000000    -0.00396438 
C325     C      0.270070000000     0.495060000000     0.475350000000    -0.00412132 
C326     C      0.242930000000     0.495280000000     0.453950000000    -0.0817412  
C327     C      0.215740000000     0.995500000000     0.475250000000    -0.00402387 
C328     C      0.215510000000     0.995050000000     0.517280000000    -0.0040961  
C329     C      0.242910000000     0.495270000000     0.538780000000    -0.0819145  
C330     C      0.270280000000     0.495500000000     0.517380000000    -0.00394804 
C331     C      0.242720000000     0.522440000000     0.184050000000    -0.00375602 
C332     C      0.242940000000     0.495300000000     0.205440000000    -0.0816739  
C333     C      0.243180000000     0.968170000000     0.183960000000    -0.00390882 
C334     C      0.242730000000     0.967950000000     0.141930000000    -0.00393919 
C335     C      0.242940000000     0.495300000000     0.120610000000    -0.0812072  
C336     C      0.243160000000     0.522670000000     0.142010000000    -0.00407111 
C337     C      0.465820000000     0.745540000000     0.475240000000    -0.00410938 
C338     C      0.492960000000     0.745320000000     0.453830000000    -0.0817443  
C339     C      0.020120000000     0.745100000000     0.475230000000     0.00389584 
C340     C      0.020340000000     0.745540000000     0.517260000000     0.00404486 
C341     C      0.492970000000     0.745320000000     0.538660000000    -0.0818771  
C342     C      0.465600000000     0.745090000000     0.517270000000    -0.00403162 
C343     C      0.399390000000     0.620290000000     0.329650000000    -0.00526602 
C344     C      0.399760000000     0.652120000000     0.329630000000    -0.0816615  
C345     C      0.367930000000     0.651750000000     0.329640000000    -0.00527683 
C346     C      0.336480000000     0.620290000000     0.329680000000    -0.00521211 
C347     C      0.336110000000     0.588470000000     0.329670000000    -0.0816323  
C348     C      0.367940000000     0.588840000000     0.329650000000    -0.00524068 
C349     C      0.117930000000     0.838850000000     0.329540000000    -0.00520646 
C350     C      0.086100000000     0.838470000000     0.329550000000    -0.0805272  
C351     C      0.086470000000     0.870300000000     0.329570000000    -0.00512993 
C352     C      0.117930000000     0.901750000000     0.329550000000    -0.0045375  
C353     C      0.149760000000     0.902130000000     0.329560000000    -0.08167    
C354     C      0.149380000000     0.870300000000     0.329570000000    -0.00481001 
C355     C      0.992680000000     0.772430000000     0.183930000000    -0.00528521 
C356     C      0.492900000000     0.745280000000     0.205330000000    -0.0818553  
C357     C      0.493120000000     0.718130000000     0.183930000000    -0.00390123 
C358     C      0.492680000000     0.717910000000     0.141900000000    -0.0041535  
C359     C      0.492900000000     0.745280000000     0.120500000000    -0.081303   
C360     C      0.993120000000     0.772650000000     0.141900000000    -0.00609914 
C361     C      0.965830000000     0.495530000000     0.475350000000    -0.00399376 
C362     C      0.492980000000     0.495310000000     0.453940000000    -0.0817996  
C363     C      0.520090000000     0.995090000000     0.475250000000    -0.00406221 
C364     C      0.520320000000     0.995540000000     0.517280000000    -0.00414652 
C365     C      0.492990000000     0.495310000000     0.538780000000    -0.0819634  
C366     C      0.965610000000     0.495090000000     0.517380000000    -0.0038872  
C367     C      0.336480000000     0.870310000000     0.329600000000    -0.00527493 
C368     C      0.336100000000     0.838480000000     0.329590000000    -0.0816262  
C369     C      0.367930000000     0.838850000000     0.329580000000    -0.0053382  
C370     C      0.399380000000     0.870310000000     0.329610000000    -0.0050684  
C371     C      0.399760000000     0.902140000000     0.329600000000    -0.0818937  
C372     C      0.367930000000     0.901760000000     0.329590000000    -0.0051315  
C373     C      0.086480000000     0.620300000000     0.329640000000    -0.00509427 
C374     C      0.086110000000     0.588470000000     0.329640000000    -0.0804948  
C375     C      0.117940000000     0.588850000000     0.329610000000    -0.00519102 
C376     C      0.149390000000     0.620300000000     0.329610000000    -0.00481084 
C377     C      0.149770000000     0.652130000000     0.329600000000    -0.0817168  
C378     C      0.117930000000     0.651750000000     0.329600000000    -0.00459636 
C379     C      0.492680000000     0.522430000000     0.184050000000    -0.00396659 
C380     C      0.492900000000     0.495280000000     0.205440000000    -0.0817881  
C381     C      0.993150000000     0.968160000000     0.183960000000    -0.00591966 
C382     C      0.992700000000     0.967940000000     0.141920000000    -0.00549628 
C383     C      0.492900000000     0.495290000000     0.120610000000    -0.0814613  
C384     C      0.493130000000     0.522650000000     0.142010000000    -0.00399989 
C385     C      0.992910000000     0.495280000000     0.249840000000     0.33832    
C386     C      0.492930000000     0.995300000000     0.409460000000     0.349306   
C387     C      0.933120000000     0.435480000000     0.329720000000     0.349766   
C388     C      0.552750000000     0.055120000000     0.329610000000     0.349195   
C389     C      0.992930000000     0.245290000000     0.249870000000     0.338222   
C390     C      0.992940000000     0.245300000000     0.409570000000     0.340518   
C391     C      0.552750000000     0.305110000000     0.329710000000     0.348974   
C392     C      0.933120000000     0.185480000000     0.329720000000     0.349569   
C393     C      0.742950000000     0.995320000000     0.249750000000     0.349118   
C394     C      0.742900000000     0.995290000000     0.409460000000     0.34931    
C395     C      0.683120000000     0.435480000000     0.329690000000     0.34901    
C396     C      0.802740000000     0.055120000000     0.329640000000     0.348952   
C397     C      0.742910000000     0.245290000000     0.409570000000     0.349381   
C398     C      0.742960000000     0.245310000000     0.249870000000     0.349713   
C399     C      0.683120000000     0.185490000000     0.329690000000     0.348963   
C400     C      0.802750000000     0.305110000000     0.329740000000     0.349145   
C401     C      0.992920000000     0.995310000000     0.076130000000     0.337836   
C402     C      0.992940000000     0.995300000000     0.916420000000     0.340166   
C403     C      0.552750000000     0.995300000000     0.996290000000     0.348744   
C404     C      0.933110000000     0.995300000000     0.996260000000     0.349277   
C405     C      0.492940000000     0.245290000000     0.076240000000     0.349108   
C406     C      0.992970000000     0.245300000000     0.916530000000     0.340551   
C407     C      0.552770000000     0.245290000000     0.996400000000     0.348927   
C408     C      0.933140000000     0.245290000000     0.996370000000     0.349702   
C409     C      0.742950000000     0.995310000000     0.076130000000     0.349158   
C410     C      0.742910000000     0.995290000000     0.916420000000     0.34928    
C411     C      0.683110000000     0.995300000000     0.996290000000     0.348777   
C412     C      0.802750000000     0.995300000000     0.996260000000     0.348531   
C413     C      0.742970000000     0.245300000000     0.076240000000     0.349159   
C414     C      0.742940000000     0.245280000000     0.916530000000     0.349518   
C415     C      0.802770000000     0.245290000000     0.996370000000     0.348846   
C416     C      0.683140000000     0.245290000000     0.996400000000     0.349123   
C417     C      0.992980000000     0.435500000000     0.663040000000     0.340414   
C418     C      0.992970000000     0.055130000000     0.662960000000     0.340439   
C419     C      0.992960000000     0.995320000000     0.583090000000     0.340389   
C420     C      0.992970000000     0.995300000000     0.742790000000     0.340706   
C421     C      0.992970000000     0.185500000000     0.663030000000     0.340442   
C422     C      0.992980000000     0.305130000000     0.663060000000     0.340171   
C423     C      0.992970000000     0.245320000000     0.583200000000     0.340618   
C424     C      0.992980000000     0.245310000000     0.742900000000     0.340652   
C425     C      0.742900000000     0.435470000000     0.663050000000     0.349226   
C426     C      0.742880000000     0.055090000000     0.662950000000     0.349124   
C427     C      0.742880000000     0.995280000000     0.583090000000     0.34918    
C428     C      0.742890000000     0.995270000000     0.742790000000     0.349467   
C429     C      0.742890000000     0.185460000000     0.663030000000     0.348945   
C430     C      0.742900000000     0.305100000000     0.663060000000     0.349213   
C431     C      0.742890000000     0.245290000000     0.583200000000     0.349515   
C432     C      0.742900000000     0.245280000000     0.742900000000     0.349385   
C433     C      0.774350000000     0.401740000000     0.663070000000    -0.0052405  
C434     C      0.742900000000     0.402110000000     0.663060000000    -0.0817145  
C435     C      0.711450000000     0.370280000000     0.663050000000    -0.00523016 
C436     C      0.711450000000     0.338830000000     0.663070000000    -0.00512867 
C437     C      0.742900000000     0.338450000000     0.663060000000    -0.0818377  
C438     C      0.774350000000     0.370280000000     0.663050000000    -0.00517015 
C439     C      0.774340000000     0.120280000000     0.662970000000    -0.0052222  
C440     C      0.742880000000     0.088450000000     0.662970000000    -0.0816829  
C441     C      0.711430000000     0.088830000000     0.663000000000    -0.00516869 
C442     C      0.711430000000     0.120280000000     0.663000000000    -0.00526029 
C443     C      0.742890000000     0.152110000000     0.663020000000    -0.0816897  
C444     C      0.774340000000     0.151730000000     0.663010000000    -0.0052134  
C445     C      0.961530000000     0.370320000000     0.663050000000    -0.00494138 
C446     C      0.992980000000     0.402150000000     0.663060000000    -0.0892096  
C447     C      0.024440000000     0.401770000000     0.663070000000     0.00284644 
C448     C      0.024440000000     0.370320000000     0.663050000000     0.00273615 
C449     C      0.992980000000     0.338490000000     0.663070000000    -0.0889992  
C450     C      0.961530000000     0.338870000000     0.663070000000    -0.00505856 
C451     C      0.024420000000     0.120310000000     0.662970000000     0.00282971 
C452     C      0.992970000000     0.088480000000     0.662980000000    -0.0891753  
C453     C      0.961520000000     0.088860000000     0.663000000000    -0.00492325 
C454     C      0.961520000000     0.120310000000     0.663000000000    -0.00500708 
C455     C      0.992970000000     0.152140000000     0.663020000000    -0.0890918  
C456     C      0.024420000000     0.151760000000     0.663010000000     0.00278446 
C457     C      0.770070000000     0.272650000000     0.850730000000    -0.00406428 
C458     C      0.742930000000     0.245280000000     0.872130000000    -0.0818165  
C459     C      0.715770000000     0.217910000000     0.850740000000    -0.00404061 
C460     C      0.715540000000     0.218130000000     0.808710000000    -0.00412773 
C461     C      0.742910000000     0.245280000000     0.787310000000    -0.0816618  
C462     C      0.770280000000     0.272430000000     0.808700000000    -0.00416061 
C463     C      0.715760000000     0.467930000000     0.850710000000    -0.00406678 
C464     C      0.742900000000     0.995290000000     0.872020000000    -0.082      
C465     C      0.770050000000     0.022650000000     0.850610000000    -0.00385126 
C466     C      0.770260000000     0.022430000000     0.808590000000    -0.0038731  
C467     C      0.742890000000     0.995270000000     0.787190000000    -0.0820543  
C468     C      0.715530000000     0.468160000000     0.808680000000    -0.00404468 
C469     C      0.867950000000     0.213840000000     0.996380000000    -0.00504977 
C470     C      0.899790000000     0.245290000000     0.996360000000    -0.0827446  
C471     C      0.899410000000     0.276750000000     0.996350000000    -0.00512827 
C472     C      0.867960000000     0.276750000000     0.996370000000    -0.00580527 
C473     C      0.836130000000     0.245290000000     0.996360000000    -0.0816996  
C474     C      0.836510000000     0.213840000000     0.996360000000    -0.00558059 
C475     C      0.617960000000     0.276750000000     0.996420000000    -0.00535377 
C476     C      0.586130000000     0.245290000000     0.996410000000    -0.0817958  
C477     C      0.586500000000     0.213840000000     0.996400000000    -0.00536256 
C478     C      0.617950000000     0.213840000000     0.996420000000    -0.00525233 
C479     C      0.649790000000     0.245290000000     0.996410000000    -0.0819483  
C480     C      0.649410000000     0.276750000000     0.996390000000    -0.00530553 
C481     C      0.520130000000     0.272670000000     0.850740000000    -0.00403533 
C482     C      0.992980000000     0.245300000000     0.872130000000    -0.0892752  
C483     C      0.965830000000     0.217930000000     0.850730000000    -0.00390818 
C484     C      0.965610000000     0.218150000000     0.808700000000    -0.00401643 
C485     C      0.992980000000     0.245300000000     0.787310000000    -0.0890618  
C486     C      0.520350000000     0.272450000000     0.808710000000    -0.00412281 
C487     C      0.899380000000     0.026760000000     0.996240000000    -0.00496828 
C488     C      0.899760000000     0.995300000000     0.996250000000    -0.0828742  
C489     C      0.867920000000     0.463850000000     0.996350000000    -0.00511721 
C490     C      0.836470000000     0.463850000000     0.996330000000    -0.00550072 
C491     C      0.836100000000     0.995300000000     0.996250000000    -0.0820234  
C492     C      0.867930000000     0.026760000000     0.996260000000    -0.00548162 
C493     C      0.617930000000     0.026760000000     0.996300000000    -0.00508294 
C494     C      0.586100000000     0.995300000000     0.996290000000    -0.082129   
C495     C      0.586470000000     0.463850000000     0.996370000000    -0.00528738 
C496     C      0.617920000000     0.463850000000     0.996390000000    -0.00534268 
C497     C      0.649760000000     0.995300000000     0.996290000000    -0.0821221  
C498     C      0.649380000000     0.026760000000     0.996280000000    -0.00507674 
C499     C      0.965810000000     0.467950000000     0.850700000000    -0.00399019 
C500     C      0.992950000000     0.995300000000     0.872020000000    -0.0893385  
C501     C      0.520100000000     0.022670000000     0.850630000000    -0.00388751 
C502     C      0.520330000000     0.022450000000     0.808590000000    -0.00379319 
C503     C      0.992960000000     0.995300000000     0.787190000000    -0.0894384  
C504     C      0.965590000000     0.468180000000     0.808670000000    -0.00393268 
C505     C      0.770050000000     0.245060000000     0.475370000000    -0.00419048 
C506     C      0.742900000000     0.245290000000     0.453970000000    -0.0817036  
C507     C      0.715750000000     0.245510000000     0.475360000000    -0.00416624 
C508     C      0.715530000000     0.245060000000     0.517400000000    -0.00395812 
C509     C      0.742890000000     0.245290000000     0.538800000000    -0.0818542  
C510     C      0.770260000000     0.245510000000     0.517400000000    -0.0040281  
C511     C      0.742750000000     0.272460000000     0.184060000000    -0.00390943 
C512     C      0.742970000000     0.245310000000     0.205470000000    -0.0818479  
C513     C      0.743190000000     0.218160000000     0.184070000000    -0.0039031  
C514     C      0.742750000000     0.217940000000     0.142040000000    -0.00409345 
C515     C      0.742980000000     0.245310000000     0.120640000000    -0.0813396  
C516     C      0.743200000000     0.272680000000     0.142030000000    -0.00412464 
C517     C      0.770040000000     0.995060000000     0.475260000000    -0.00411209 
C518     C      0.742890000000     0.995280000000     0.453860000000    -0.0818095  
C519     C      0.715770000000     0.495500000000     0.475340000000    -0.00411097 
C520     C      0.715540000000     0.495050000000     0.517370000000    -0.00403249 
C521     C      0.742880000000     0.995280000000     0.538690000000    -0.0817281  
C522     C      0.770250000000     0.995500000000     0.517290000000    -0.00416115 
C523     C      0.742740000000     0.022470000000     0.183950000000    -0.00373941 
C524     C      0.742960000000     0.995320000000     0.205350000000    -0.0819245  
C525     C      0.743160000000     0.468150000000     0.184040000000    -0.00393681 
C526     C      0.742710000000     0.467930000000     0.142010000000    -0.00409876 
C527     C      0.742950000000     0.995320000000     0.120530000000    -0.0816603  
C528     C      0.743180000000     0.022690000000     0.141920000000    -0.00382359 
C529     C      0.965810000000     0.245540000000     0.475380000000    -0.00393962 
C530     C      0.992950000000     0.245310000000     0.453970000000    -0.0892567  
C531     C      0.520100000000     0.245090000000     0.475360000000    -0.00402185 
C532     C      0.520330000000     0.245540000000     0.517400000000    -0.00413486 
C533     C      0.992970000000     0.245320000000     0.538800000000    -0.0891456  
C534     C      0.965590000000     0.245100000000     0.517410000000    -0.00399302 
C535     C      0.899380000000     0.120300000000     0.329710000000    -0.00510394 
C536     C      0.899760000000     0.152130000000     0.329710000000    -0.0824289  
C537     C      0.867930000000     0.151750000000     0.329690000000    -0.00499077 
C538     C      0.836480000000     0.120300000000     0.329690000000    -0.00541482 
C539     C      0.836100000000     0.088470000000     0.329660000000    -0.0815941  
C540     C      0.867930000000     0.088850000000     0.329670000000    -0.00551565 
C541     C      0.617940000000     0.338840000000     0.329690000000    -0.00524637 
C542     C      0.586110000000     0.338470000000     0.329710000000    -0.0816438  
C543     C      0.586490000000     0.370290000000     0.329720000000    -0.00513853 
C544     C      0.617930000000     0.401740000000     0.329690000000    -0.00525823 
C545     C      0.649770000000     0.402120000000     0.329700000000    -0.0816452  
C546     C      0.649390000000     0.370290000000     0.329710000000    -0.00520651 
C547     C      0.492710000000     0.272440000000     0.184070000000    -0.00387028 
C548     C      0.992930000000     0.245290000000     0.205470000000    -0.0799878  
C549     C      0.993150000000     0.218140000000     0.184070000000    -0.00581414 
C550     C      0.992710000000     0.217920000000     0.142040000000    -0.00560859 
C551     C      0.992940000000     0.245290000000     0.120640000000    -0.079522   
C552     C      0.493160000000     0.272660000000     0.142030000000    -0.00417545 
C553     C      0.465800000000     0.995530000000     0.475260000000    -0.00405492 
C554     C      0.992940000000     0.995310000000     0.453860000000    -0.089122   
C555     C      0.020130000000     0.495090000000     0.475340000000     0.00388355 
C556     C      0.020350000000     0.495540000000     0.517370000000     0.00415479 
C557     C      0.992960000000     0.995320000000     0.538690000000    -0.0891316  
C558     C      0.465580000000     0.995090000000     0.517300000000    -0.00418742 
C559     C      0.836490000000     0.370300000000     0.329760000000    -0.00542751 
C560     C      0.836110000000     0.338470000000     0.329750000000    -0.0815991  
C561     C      0.867940000000     0.338840000000     0.329730000000    -0.00562741 
C562     C      0.899390000000     0.370290000000     0.329750000000    -0.00506102 
C563     C      0.899770000000     0.402130000000     0.329730000000    -0.0825508  
C564     C      0.867940000000     0.401750000000     0.329730000000    -0.00496503 
C565     C      0.586480000000     0.120310000000     0.329650000000    -0.00516552 
C566     C      0.586100000000     0.088470000000     0.329630000000    -0.0817622  
C567     C      0.617930000000     0.088850000000     0.329630000000    -0.00514426 
C568     C      0.649380000000     0.120300000000     0.329670000000    -0.00520393 
C569     C      0.649760000000     0.152130000000     0.329670000000    -0.0815805  
C570     C      0.617930000000     0.151760000000     0.329650000000    -0.00527463 
C571     C      0.992700000000     0.022460000000     0.183960000000    -0.00529707 
C572     C      0.992930000000     0.995310000000     0.205350000000    -0.0800404  
C573     C      0.493130000000     0.468130000000     0.184040000000    -0.00399451 
C574     C      0.492680000000     0.467910000000     0.142010000000    -0.00406173 
C575     C      0.992920000000     0.995310000000     0.120530000000    -0.0798471  
C576     C      0.993140000000     0.022680000000     0.141920000000    -0.00574471 
C577     C      0.992930000000     0.995310000000     0.249760000000     0.337931   
C578     C      0.492970000000     0.495310000000     0.409550000000     0.34944    
C579     C      0.933110000000     0.935490000000     0.329600000000     0.349541   
C580     C      0.552760000000     0.555110000000     0.329660000000     0.349184   
C581     C      0.992910000000     0.745280000000     0.249730000000     0.338573   
C582     C      0.992950000000     0.745310000000     0.409430000000     0.340504   
C583     C      0.552750000000     0.805120000000     0.329560000000     0.349186   
C584     C      0.933120000000     0.685480000000     0.329610000000     0.349692   
C585     C      0.742940000000     0.495290000000     0.249840000000     0.349396   
C586     C      0.742930000000     0.495290000000     0.409550000000     0.349519   
C587     C      0.683110000000     0.935490000000     0.329570000000     0.349034   
C588     C      0.802750000000     0.555110000000     0.329690000000     0.348865   
C589     C      0.742930000000     0.745300000000     0.409430000000     0.349396   
C590     C      0.742940000000     0.745300000000     0.249730000000     0.34965    
C591     C      0.683120000000     0.685480000000     0.329580000000     0.349199   
C592     C      0.802750000000     0.805120000000     0.329590000000     0.348899   
C593     C      0.992910000000     0.495290000000     0.076210000000     0.338125   
C594     C      0.992940000000     0.495320000000     0.916510000000     0.340368   
C595     C      0.552740000000     0.495310000000     0.996370000000     0.349079   
C596     C      0.933110000000     0.495310000000     0.996350000000     0.349552   
C597     C      0.492900000000     0.745280000000     0.076100000000     0.349152   
C598     C      0.992930000000     0.745300000000     0.916400000000     0.340378   
C599     C      0.552730000000     0.745290000000     0.996260000000     0.348926   
C600     C      0.933100000000     0.745290000000     0.996230000000     0.3497     
C601     C      0.742930000000     0.495300000000     0.076210000000     0.349229   
C602     C      0.742910000000     0.495310000000     0.916510000000     0.349602   
C603     C      0.683110000000     0.495300000000     0.996380000000     0.349036   
C604     C      0.802740000000     0.495300000000     0.996350000000     0.348944   
C605     C      0.742930000000     0.745300000000     0.076100000000     0.349456   
C606     C      0.742900000000     0.745290000000     0.916400000000     0.34937    
C607     C      0.802730000000     0.745290000000     0.996240000000     0.348671   
C608     C      0.683100000000     0.745290000000     0.996260000000     0.348862   
C609     C      0.992960000000     0.935490000000     0.662930000000     0.340414   
C610     C      0.992980000000     0.555130000000     0.663010000000     0.340423   
C611     C      0.992990000000     0.495310000000     0.583170000000     0.340841   
C612     C      0.992980000000     0.495330000000     0.742880000000     0.340642   
C613     C      0.992980000000     0.685500000000     0.662930000000     0.340414   
C614     C      0.992970000000     0.805130000000     0.662910000000     0.340236   
C615     C      0.992980000000     0.745310000000     0.583060000000     0.34079    
C616     C      0.992960000000     0.745310000000     0.742770000000     0.340626   
C617     C      0.742880000000     0.935460000000     0.662930000000     0.348988   
C618     C      0.742900000000     0.555100000000     0.663000000000     0.349059   
C619     C      0.742910000000     0.495270000000     0.583170000000     0.349642   
C620     C      0.742900000000     0.495300000000     0.742880000000     0.349465   
C621     C      0.742890000000     0.685470000000     0.662930000000     0.349072   
C622     C      0.742890000000     0.805090000000     0.662910000000     0.349254   
C623     C      0.742900000000     0.745280000000     0.583060000000     0.349608   
C624     C      0.742890000000     0.745280000000     0.742770000000     0.349674   
C625     C      0.774340000000     0.901730000000     0.662930000000    -0.00528063 
C626     C      0.742880000000     0.902100000000     0.662920000000    -0.0816386  
C627     C      0.711430000000     0.870270000000     0.662910000000    -0.005231   
C628     C      0.711430000000     0.838820000000     0.662920000000    -0.00520532 
C629     C      0.742890000000     0.838450000000     0.662910000000    -0.0817354  
C630     C      0.774340000000     0.870280000000     0.662900000000    -0.00519376 
C631     C      0.774350000000     0.620290000000     0.662970000000    -0.00518234 
C632     C      0.742900000000     0.588450000000     0.662980000000    -0.0817516  
C633     C      0.711440000000     0.588830000000     0.662980000000    -0.00521152 
C634     C      0.711440000000     0.620280000000     0.662940000000    -0.0052661  
C635     C      0.742900000000     0.652110000000     0.662940000000    -0.081599   
C636     C      0.774350000000     0.651730000000     0.662970000000    -0.00526118 
C637     C      0.961510000000     0.870310000000     0.662910000000    -0.00499897 
C638     C      0.992970000000     0.902140000000     0.662920000000    -0.0891576  
C639     C      0.024420000000     0.901760000000     0.662930000000     0.00282991 
C640     C      0.024420000000     0.870310000000     0.662900000000     0.00278242 
C641     C      0.992970000000     0.838480000000     0.662910000000    -0.0891023  
C642     C      0.961510000000     0.838860000000     0.662920000000    -0.00501058 
C643     C      0.024430000000     0.620320000000     0.662970000000     0.00277049 
C644     C      0.992980000000     0.588490000000     0.662990000000    -0.0890725  
C645     C      0.961520000000     0.588860000000     0.662980000000    -0.00507018 
C646     C      0.961520000000     0.620310000000     0.662940000000    -0.00494067 
C647     C      0.992980000000     0.652150000000     0.662940000000    -0.0892145  
C648     C      0.024430000000     0.651770000000     0.662970000000     0.00285885 
C649     C      0.770040000000     0.772660000000     0.850600000000    -0.00416152 
C650     C      0.742900000000     0.745290000000     0.872000000000    -0.0816946  
C651     C      0.715740000000     0.717920000000     0.850600000000    -0.00413217 
C652     C      0.715520000000     0.718140000000     0.808570000000    -0.00399477 
C653     C      0.742890000000     0.745290000000     0.787170000000    -0.0818957  
C654     C      0.770260000000     0.772430000000     0.808560000000    -0.00401292 
C655     C      0.715750000000     0.967910000000     0.850630000000    -0.00408269 
C656     C      0.742910000000     0.495310000000     0.872110000000    -0.0818181  
C657     C      0.770050000000     0.522680000000     0.850710000000    -0.0040753  
C658     C      0.770270000000     0.522450000000     0.808680000000    -0.00409618 
C659     C      0.742900000000     0.495300000000     0.787280000000    -0.081789   
C660     C      0.715520000000     0.968130000000     0.808600000000    -0.00402714 
C661     C      0.867910000000     0.713840000000     0.996240000000    -0.00503937 
C662     C      0.899750000000     0.745290000000     0.996230000000    -0.082743   
C663     C      0.899370000000     0.776750000000     0.996220000000    -0.00513553 
C664     C      0.867920000000     0.776750000000     0.996240000000    -0.00577873 
C665     C      0.836090000000     0.745290000000     0.996230000000    -0.0816378  
C666     C      0.836460000000     0.713840000000     0.996210000000    -0.00560947 
C667     C      0.617920000000     0.776750000000     0.996280000000    -0.0053485  
C668     C      0.586090000000     0.745290000000     0.996270000000    -0.0818073  
C669     C      0.586460000000     0.713840000000     0.996260000000    -0.00534327 
C670     C      0.617910000000     0.713840000000     0.996280000000    -0.00529828 
C671     C      0.649750000000     0.745290000000     0.996270000000    -0.0818588  
C672     C      0.649370000000     0.776750000000     0.996260000000    -0.00531671 
C673     C      0.520100000000     0.772680000000     0.850600000000    -0.00413955 
C674     C      0.992940000000     0.745310000000     0.871990000000    -0.0890943  
C675     C      0.965800000000     0.717940000000     0.850590000000    -0.0040127  
C676     C      0.965590000000     0.718160000000     0.808560000000    -0.00391276 
C677     C      0.992960000000     0.745310000000     0.787170000000    -0.0891744  
C678     C      0.520330000000     0.772460000000     0.808570000000    -0.00405258 
C679     C      0.899380000000     0.526760000000     0.996330000000    -0.00522777 
C680     C      0.899750000000     0.495300000000     0.996340000000    -0.082632   
C681     C      0.867930000000     0.963850000000     0.996270000000    -0.00510549 
C682     C      0.836480000000     0.963850000000     0.996240000000    -0.00550574 
C683     C      0.836090000000     0.495300000000     0.996340000000    -0.0818606  
C684     C      0.867930000000     0.526760000000     0.996350000000    -0.00566315 
C685     C      0.617930000000     0.526760000000     0.996390000000    -0.00529618 
C686     C      0.586090000000     0.495300000000     0.996380000000    -0.0819042  
C687     C      0.586480000000     0.963850000000     0.996290000000    -0.00528356 
C688     C      0.617930000000     0.963850000000     0.996310000000    -0.00529338 
C689     C      0.649750000000     0.495300000000     0.996380000000    -0.0818156  
C690     C      0.649380000000     0.526760000000     0.996370000000    -0.0053516  
C691     C      0.965810000000     0.967930000000     0.850620000000    -0.00400275 
C692     C      0.992950000000     0.495320000000     0.872110000000    -0.0891887  
C693     C      0.520110000000     0.522690000000     0.850720000000    -0.00412791 
C694     C      0.520340000000     0.522470000000     0.808690000000    -0.00405498 
C695     C      0.992970000000     0.495330000000     0.787280000000    -0.0891667  
C696     C      0.965590000000     0.968150000000     0.808590000000    -0.00388956 
C697     C      0.770060000000     0.745070000000     0.475240000000    -0.00413541 
C698     C      0.742920000000     0.745290000000     0.453840000000    -0.081705   
C699     C      0.715770000000     0.745510000000     0.475230000000    -0.00408312 
C700     C      0.715530000000     0.745060000000     0.517260000000    -0.00407923 
C701     C      0.742900000000     0.745280000000     0.538660000000    -0.0818458  
C702     C      0.770280000000     0.745510000000     0.517270000000    -0.00407392 
C703     C      0.742710000000     0.772450000000     0.183930000000    -0.00395053 
C704     C      0.742940000000     0.745300000000     0.205330000000    -0.0818088  
C705     C      0.743160000000     0.718150000000     0.183930000000    -0.00395092 
C706     C      0.742710000000     0.717930000000     0.141900000000    -0.00406954 
C707     C      0.742930000000     0.745300000000     0.120500000000    -0.0814457  
C708     C      0.743160000000     0.772670000000     0.141900000000    -0.00406217 
C709     C      0.770070000000     0.495060000000     0.475350000000    -0.00409243 
C710     C      0.742930000000     0.495280000000     0.453950000000    -0.0818111  
C711     C      0.715740000000     0.995500000000     0.475250000000    -0.0040908  
C712     C      0.715510000000     0.995050000000     0.517280000000    -0.00413122 
C713     C      0.742910000000     0.495270000000     0.538780000000    -0.081921   
C714     C      0.770290000000     0.495500000000     0.517380000000    -0.00406238 
C715     C      0.742720000000     0.522440000000     0.184050000000    -0.00386467 
C716     C      0.742940000000     0.495300000000     0.205440000000    -0.0817849  
C717     C      0.743180000000     0.968170000000     0.183960000000    -0.00400682 
C718     C      0.742730000000     0.967950000000     0.141930000000    -0.00403919 
C719     C      0.742940000000     0.495300000000     0.120610000000    -0.0813422  
C720     C      0.743160000000     0.522670000000     0.142010000000    -0.00416056 
C721     C      0.965820000000     0.745540000000     0.475240000000    -0.00400356 
C722     C      0.992960000000     0.745320000000     0.453830000000    -0.0891963  
C723     C      0.520120000000     0.745100000000     0.475230000000    -0.00415483 
C724     C      0.520340000000     0.745540000000     0.517260000000    -0.00401757 
C725     C      0.992970000000     0.745320000000     0.538660000000    -0.0892668  
C726     C      0.965600000000     0.745090000000     0.517270000000    -0.00389002 
C727     C      0.899390000000     0.620290000000     0.329650000000    -0.00510133 
C728     C      0.899760000000     0.652120000000     0.329630000000    -0.082425   
C729     C      0.867930000000     0.651750000000     0.329640000000    -0.00503254 
C730     C      0.836480000000     0.620290000000     0.329680000000    -0.00542124 
C731     C      0.836110000000     0.588470000000     0.329670000000    -0.0815229  
C732     C      0.867940000000     0.588840000000     0.329650000000    -0.00563767 
C733     C      0.617930000000     0.838850000000     0.329540000000    -0.0051741  
C734     C      0.586100000000     0.838470000000     0.329550000000    -0.0817644  
C735     C      0.586470000000     0.870300000000     0.329570000000    -0.00524271 
C736     C      0.617930000000     0.901750000000     0.329550000000    -0.00514357 
C737     C      0.649760000000     0.902130000000     0.329560000000    -0.0817135  
C738     C      0.649380000000     0.870300000000     0.329570000000    -0.00517791 
C739     C      0.492680000000     0.772430000000     0.183930000000    -0.00385595 
C740     C      0.992900000000     0.745280000000     0.205330000000    -0.0801502  
C741     C      0.993120000000     0.718130000000     0.183930000000    -0.00577213 
C742     C      0.992680000000     0.717910000000     0.141900000000    -0.00565157 
C743     C      0.992900000000     0.745280000000     0.120500000000    -0.079489   
C744     C      0.493120000000     0.772650000000     0.141900000000    -0.00416123 
C745     C      0.465830000000     0.495530000000     0.475350000000    -0.00410181 
C746     C      0.992980000000     0.495310000000     0.453940000000    -0.0892481  
C747     C      0.020100000000     0.995090000000     0.475250000000     0.0038186  
C748     C      0.020320000000     0.995540000000     0.517280000000     0.0039912  
C749     C      0.992990000000     0.495310000000     0.538780000000    -0.0893733  
C750     C      0.465610000000     0.495090000000     0.517380000000    -0.00402896 
C751     C      0.836480000000     0.870310000000     0.329600000000    -0.00543007 
C752     C      0.836100000000     0.838480000000     0.329590000000    -0.0815588  
C753     C      0.867930000000     0.838850000000     0.329580000000    -0.00566301 
C754     C      0.899380000000     0.870310000000     0.329610000000    -0.00498526 
C755     C      0.899760000000     0.902140000000     0.329600000000    -0.0825238  
C756     C      0.867930000000     0.901760000000     0.329590000000    -0.00497908 
C757     C      0.586480000000     0.620300000000     0.329640000000    -0.00520989 
C758     C      0.586110000000     0.588470000000     0.329640000000    -0.0817351  
C759     C      0.617940000000     0.588850000000     0.329610000000    -0.00517683 
C760     C      0.649390000000     0.620300000000     0.329610000000    -0.00513151 
C761     C      0.649770000000     0.652130000000     0.329600000000    -0.0817807  
C762     C      0.617930000000     0.651750000000     0.329600000000    -0.00519477 
C763     C      0.992680000000     0.522430000000     0.184050000000    -0.00544473 
C764     C      0.992900000000     0.495280000000     0.205440000000    -0.0799795  
C765     C      0.493150000000     0.968160000000     0.183960000000    -0.00400882 
C766     C      0.492700000000     0.967940000000     0.141920000000    -0.00402843 
C767     C      0.992900000000     0.495290000000     0.120610000000    -0.0796658  
C768     C      0.993130000000     0.522650000000     0.142010000000    -0.00591399 
Cu1      Cu     0.009030000000     0.479200000000     0.329690000000     0.855838   
Cu2      Cu     0.476840000000     0.011400000000     0.329610000000     0.840889   
Cu3      Cu     0.476840000000     0.261390000000     0.329720000000     0.84051    
Cu4      Cu     0.009030000000     0.229200000000     0.329720000000     0.855842   
Cu5      Cu     0.259030000000     0.479200000000     0.329690000000     0.840468   
Cu6      Cu     0.226830000000     0.011400000000     0.329600000000     0.841258   
Cu7      Cu     0.226840000000     0.261390000000     0.329710000000     0.840742   
Cu8      Cu     0.259030000000     0.229210000000     0.329730000000     0.8406     
Cu9      Cu     0.476830000000     0.463120000000     0.996360000000     0.839125   
Cu10     Cu     0.009020000000     0.027490000000     0.996270000000     0.854613   
Cu11     Cu     0.476860000000     0.213110000000     0.996390000000     0.839066   
Cu12     Cu     0.009050000000     0.277480000000     0.996390000000     0.854475   
Cu13     Cu     0.259020000000     0.027490000000     0.996270000000     0.839162   
Cu14     Cu     0.226830000000     0.463120000000     0.996360000000     0.839326   
Cu15     Cu     0.226860000000     0.213110000000     0.996390000000     0.839345   
Cu16     Cu     0.259050000000     0.277480000000     0.996380000000     0.83899    
Cu17     Cu     0.460800000000     0.479230000000     0.663030000000     0.840546   
Cu18     Cu     0.025150000000     0.011400000000     0.662940000000     0.846679   
Cu19     Cu     0.460790000000     0.229220000000     0.663060000000     0.840464   
Cu20     Cu     0.025160000000     0.261410000000     0.663050000000     0.846313   
Cu21     Cu     0.210710000000     0.479190000000     0.663030000000     0.840912   
Cu22     Cu     0.275070000000     0.011370000000     0.662940000000     0.840689   
Cu23     Cu     0.210710000000     0.229190000000     0.663050000000     0.840801   
Cu24     Cu     0.275080000000     0.261370000000     0.663050000000     0.840372   
Cu25     Cu     0.009020000000     0.979210000000     0.329600000000     0.855496   
Cu26     Cu     0.476850000000     0.511390000000     0.329700000000     0.840591   
Cu27     Cu     0.476840000000     0.761390000000     0.329590000000     0.840564   
Cu28     Cu     0.009030000000     0.729210000000     0.329580000000     0.855843   
Cu29     Cu     0.259020000000     0.979210000000     0.329610000000     0.840025   
Cu30     Cu     0.226840000000     0.511380000000     0.329690000000     0.840793   
Cu31     Cu     0.226840000000     0.761390000000     0.329580000000     0.840623   
Cu32     Cu     0.259030000000     0.729210000000     0.329580000000     0.840545   
Cu33     Cu     0.476840000000     0.963120000000     0.996270000000     0.838917   
Cu34     Cu     0.009020000000     0.527490000000     0.996360000000     0.854531   
Cu35     Cu     0.476820000000     0.713110000000     0.996240000000     0.839185   
Cu36     Cu     0.009010000000     0.777480000000     0.996250000000     0.854332   
Cu37     Cu     0.259020000000     0.527490000000     0.996360000000     0.839021   
Cu38     Cu     0.226840000000     0.963120000000     0.996280000000     0.839122   
Cu39     Cu     0.226820000000     0.713110000000     0.996250000000     0.839281   
Cu40     Cu     0.259010000000     0.777480000000     0.996250000000     0.838979   
Cu41     Cu     0.460780000000     0.979220000000     0.662940000000     0.840043   
Cu42     Cu     0.025170000000     0.511410000000     0.663030000000     0.846266   
Cu43     Cu     0.460780000000     0.729220000000     0.662910000000     0.840465   
Cu44     Cu     0.025160000000     0.761410000000     0.662920000000     0.846261   
Cu45     Cu     0.210700000000     0.979180000000     0.662940000000     0.840401   
Cu46     Cu     0.275090000000     0.511380000000     0.663030000000     0.84035    
Cu47     Cu     0.210700000000     0.729180000000     0.662910000000     0.840903   
Cu48     Cu     0.275080000000     0.761370000000     0.662920000000     0.840497   
Cu49     Cu     0.509040000000     0.479200000000     0.329690000000     0.840534   
Cu50     Cu     0.976840000000     0.011400000000     0.329610000000     0.82421    
Cu51     Cu     0.976840000000     0.261390000000     0.329720000000     0.823842   
Cu52     Cu     0.509030000000     0.229200000000     0.329720000000     0.840542   
Cu53     Cu     0.759030000000     0.479200000000     0.329690000000     0.840492   
Cu54     Cu     0.726830000000     0.011400000000     0.329600000000     0.841091   
Cu55     Cu     0.726840000000     0.261390000000     0.329710000000     0.840495   
Cu56     Cu     0.759030000000     0.229210000000     0.329730000000     0.840629   
Cu57     Cu     0.976830000000     0.463120000000     0.996360000000     0.822484   
Cu58     Cu     0.509020000000     0.027490000000     0.996270000000     0.839194   
Cu59     Cu     0.976860000000     0.213110000000     0.996390000000     0.822444   
Cu60     Cu     0.509050000000     0.277480000000     0.996390000000     0.839148   
Cu61     Cu     0.759020000000     0.027490000000     0.996270000000     0.83917    
Cu62     Cu     0.726830000000     0.463120000000     0.996360000000     0.83914    
Cu63     Cu     0.726860000000     0.213110000000     0.996390000000     0.839159   
Cu64     Cu     0.759050000000     0.277480000000     0.996380000000     0.839018   
Cu65     Cu     0.960800000000     0.479230000000     0.663030000000     0.831284   
Cu66     Cu     0.525150000000     0.011400000000     0.662940000000     0.840913   
Cu67     Cu     0.960790000000     0.229220000000     0.663060000000     0.831212   
Cu68     Cu     0.525160000000     0.261410000000     0.663050000000     0.840496   
Cu69     Cu     0.710710000000     0.479190000000     0.663030000000     0.840612   
Cu70     Cu     0.775070000000     0.011370000000     0.662940000000     0.840733   
Cu71     Cu     0.710710000000     0.229190000000     0.663050000000     0.840544   
Cu72     Cu     0.775080000000     0.261370000000     0.663050000000     0.840399   
Cu73     Cu     0.509020000000     0.979210000000     0.329600000000     0.840144   
Cu74     Cu     0.976850000000     0.511390000000     0.329700000000     0.82382    
Cu75     Cu     0.976840000000     0.761390000000     0.329590000000     0.823957   
Cu76     Cu     0.509030000000     0.729210000000     0.329580000000     0.840506   
Cu77     Cu     0.759020000000     0.979210000000     0.329610000000     0.840047   
Cu78     Cu     0.726840000000     0.511380000000     0.329690000000     0.840603   
Cu79     Cu     0.726840000000     0.761390000000     0.329580000000     0.840437   
Cu80     Cu     0.759030000000     0.729210000000     0.329580000000     0.84057    
Cu81     Cu     0.976840000000     0.963120000000     0.996270000000     0.822326   
Cu82     Cu     0.509020000000     0.527490000000     0.996360000000     0.839186   
Cu83     Cu     0.976820000000     0.713110000000     0.996240000000     0.822548   
Cu84     Cu     0.509010000000     0.777480000000     0.996250000000     0.838996   
Cu85     Cu     0.759020000000     0.527490000000     0.996360000000     0.839049   
Cu86     Cu     0.726840000000     0.963120000000     0.996280000000     0.839059   
Cu87     Cu     0.726820000000     0.713110000000     0.996250000000     0.839094   
Cu88     Cu     0.759010000000     0.777480000000     0.996250000000     0.83901    
Cu89     Cu     0.960780000000     0.979220000000     0.662940000000     0.830841   
Cu90     Cu     0.525170000000     0.511410000000     0.663030000000     0.840446   
Cu91     Cu     0.960790000000     0.729220000000     0.662910000000     0.831189   
Cu92     Cu     0.525160000000     0.761410000000     0.662920000000     0.840567   
Cu93     Cu     0.710700000000     0.979180000000     0.662940000000     0.840135   
Cu94     Cu     0.775090000000     0.511380000000     0.663030000000     0.840408   
Cu95     Cu     0.710700000000     0.729180000000     0.662910000000     0.840687   
Cu96     Cu     0.775080000000     0.761370000000     0.662920000000     0.840499   
H1       H      0.299080000000     0.425750000000     0.663060000000     0.0439504  
H2       H      0.186730000000     0.369580000000     0.663050000000     0.0440947  
H3       H      0.186730000000     0.314820000000     0.663070000000     0.0440621  
H4       H      0.299070000000     0.370990000000     0.663060000000     0.0438974  
H5       H      0.299060000000     0.120980000000     0.662970000000     0.0439393  
H6       H      0.186710000000     0.064810000000     0.662980000000     0.0441099  
H7       H      0.186710000000     0.119570000000     0.663010000000     0.044093   
H8       H      0.299060000000     0.175740000000     0.663010000000     0.0439318  
H9       H      0.436810000000     0.369610000000     0.663050000000     0.0439042  
H10      H      0.549160000000     0.425780000000     0.663060000000     0.0439279  
H11      H      0.549150000000     0.371020000000     0.663060000000     0.0439855  
H12      H      0.436810000000     0.314850000000     0.663070000000     0.0439455  
H13      H      0.549140000000     0.121020000000     0.662970000000     0.0439458  
H14      H      0.436790000000     0.064850000000     0.662990000000     0.0439437  
H15      H      0.436800000000     0.119610000000     0.663010000000     0.0439449  
H16      H      0.549140000000     0.175780000000     0.663010000000     0.0439547  
H17      H      0.291400000000     0.294000000000     0.866470000000     0.04353    
H18      H      0.194450000000     0.196560000000     0.866500000000     0.0437637  
H19      H      0.194190000000     0.196800000000     0.792960000000     0.0437889  
H20      H      0.291630000000     0.293750000000     0.792940000000     0.0435602  
H21      H      0.194430000000     0.446580000000     0.866470000000     0.0437754  
H22      H      0.291380000000     0.044010000000     0.866360000000     0.0435186  
H23      H      0.291620000000     0.043750000000     0.792830000000     0.0435276  
H24      H      0.194170000000     0.446830000000     0.792930000000     0.0437537  
H25      H      0.367250000000     0.189120000000     0.996370000000     0.0437489  
H26      H      0.423420000000     0.301470000000     0.996360000000     0.0437386  
H27      H      0.368670000000     0.301460000000     0.996370000000     0.0437879  
H28      H      0.312490000000     0.189120000000     0.996360000000     0.0437941  
H29      H      0.118670000000     0.301470000000     0.996410000000     0.0441946  
H30      H      0.062490000000     0.189120000000     0.996400000000     0.0453509  
H31      H      0.117250000000     0.189120000000     0.996420000000     0.0442416  
H32      H      0.173420000000     0.301460000000     0.996400000000     0.0438552  
H33      H      0.041460000000     0.294020000000     0.866490000000     0.0430356  
H34      H      0.444500000000     0.196570000000     0.866480000000     0.0435238  
H35      H      0.444260000000     0.196830000000     0.792950000000     0.0435709  
H36      H      0.041710000000     0.293780000000     0.792960000000     0.0431456  
H37      H      0.423400000000     0.051480000000     0.996240000000     0.0437316  
H38      H      0.367220000000     0.439130000000     0.996340000000     0.0437588  
H39      H      0.312460000000     0.439130000000     0.996330000000     0.0437747  
H40      H      0.368640000000     0.051480000000     0.996250000000     0.0437311  
H41      H      0.118640000000     0.051480000000     0.996290000000     0.0441712  
H42      H      0.062460000000     0.439130000000     0.996370000000     0.0453368  
H43      H      0.117210000000     0.439130000000     0.996380000000     0.0442553  
H44      H      0.173400000000     0.051480000000     0.996280000000     0.0438336  
H45      H      0.444480000000     0.446600000000     0.866450000000     0.0435481  
H46      H      0.041430000000     0.044020000000     0.866380000000     0.0430518  
H47      H      0.041690000000     0.043780000000     0.792840000000     0.0431079  
H48      H      0.444240000000     0.446850000000     0.792910000000     0.043538   
H49      H      0.291380000000     0.245040000000     0.459620000000     0.0435491  
H50      H      0.194430000000     0.245540000000     0.459610000000     0.0437736  
H51      H      0.194170000000     0.245040000000     0.533140000000     0.0437366  
H52      H      0.291610000000     0.245530000000     0.533160000000     0.043535   
H53      H      0.242730000000     0.293790000000     0.199810000000     0.0437489  
H54      H      0.243210000000     0.196830000000     0.199830000000     0.0437434  
H55      H      0.242730000000     0.196580000000     0.126290000000     0.0439818  
H56      H      0.243220000000     0.294030000000     0.126280000000     0.0439822  
H57      H      0.291370000000     0.995030000000     0.459510000000     0.0434864  
H58      H      0.194450000000     0.495530000000     0.459580000000     0.0437751  
H59      H      0.194190000000     0.495020000000     0.533120000000     0.0437504  
H60      H      0.291610000000     0.995520000000     0.533050000000     0.0435068  
H61      H      0.242710000000     0.043800000000     0.199710000000     0.0437372  
H62      H      0.243180000000     0.446820000000     0.199790000000     0.043749   
H63      H      0.242690000000     0.446580000000     0.126250000000     0.0439978  
H64      H      0.243200000000     0.044040000000     0.126170000000     0.043955   
H65      H      0.444480000000     0.245560000000     0.459620000000     0.0435289  
H66      H      0.041430000000     0.245060000000     0.459610000000     0.043042   
H67      H      0.041690000000     0.245570000000     0.533140000000     0.0431313  
H68      H      0.444240000000     0.245080000000     0.533160000000     0.0435519  
H69      H      0.423400000000     0.119590000000     0.329710000000     0.0439496  
H70      H      0.367230000000     0.175770000000     0.329690000000     0.0439444  
H71      H      0.312470000000     0.121010000000     0.329670000000     0.0439863  
H72      H      0.368640000000     0.064830000000     0.329670000000     0.0439691  
H73      H      0.118640000000     0.314830000000     0.329700000000     0.0444044  
H74      H      0.062470000000     0.371000000000     0.329710000000     0.0455512  
H75      H      0.117230000000     0.425760000000     0.329690000000     0.0444161  
H76      H      0.173400000000     0.369590000000     0.329700000000     0.0440405  
H77      H      0.992690000000     0.293770000000     0.199820000000     0.0425072  
H78      H      0.493180000000     0.196810000000     0.199820000000     0.0436072  
H79      H      0.492690000000     0.196570000000     0.126290000000     0.0438778  
H80      H      0.993190000000     0.294010000000     0.126280000000     0.0422116  
H81      H      0.944470000000     0.995560000000     0.459510000000     0.0430197  
H82      H      0.541450000000     0.495070000000     0.459580000000     0.0435812  
H83      H      0.541710000000     0.495560000000     0.533120000000     0.0435066  
H84      H      0.944230000000     0.995070000000     0.533050000000     0.0430519  
H85      H      0.312480000000     0.371010000000     0.329750000000     0.0439886  
H86      H      0.368650000000     0.314830000000     0.329740000000     0.0439633  
H87      H      0.423410000000     0.369590000000     0.329740000000     0.0439238  
H88      H      0.367230000000     0.425760000000     0.329730000000     0.0439227  
H89      H      0.062470000000     0.121010000000     0.329630000000     0.0455403  
H90      H      0.118640000000     0.064840000000     0.329630000000     0.0443932  
H91      H      0.173400000000     0.119590000000     0.329670000000     0.0440426  
H92      H      0.117230000000     0.175770000000     0.329660000000     0.0444697  
H93      H      0.492680000000     0.043780000000     0.199710000000     0.0436469  
H94      H      0.993150000000     0.446810000000     0.199790000000     0.0419884  
H95      H      0.992660000000     0.446560000000     0.126250000000     0.042723   
H96      H      0.493170000000     0.044030000000     0.126170000000     0.0438294  
H97      H      0.299060000000     0.925740000000     0.662930000000     0.043906   
H98      H      0.186710000000     0.869570000000     0.662910000000     0.0440849  
H99      H      0.186710000000     0.814810000000     0.662910000000     0.0440743  
H100     H      0.299060000000     0.870990000000     0.662910000000     0.0439213  
H101     H      0.299070000000     0.620990000000     0.662980000000     0.0439218  
H102     H      0.186720000000     0.564820000000     0.662980000000     0.0440746  
H103     H      0.186720000000     0.619570000000     0.662940000000     0.0440853  
H104     H      0.299070000000     0.675750000000     0.662960000000     0.0439197  
H105     H      0.436790000000     0.869600000000     0.662910000000     0.0439191  
H106     H      0.549140000000     0.925780000000     0.662920000000     0.0439144  
H107     H      0.549140000000     0.871020000000     0.662910000000     0.0439492  
H108     H      0.436790000000     0.814840000000     0.662910000000     0.0439255  
H109     H      0.549150000000     0.621030000000     0.662980000000     0.0439495  
H110     H      0.436810000000     0.564850000000     0.662980000000     0.043927   
H111     H      0.436800000000     0.619610000000     0.662940000000     0.0439194  
H112     H      0.549150000000     0.675780000000     0.662960000000     0.0439336  
H113     H      0.291370000000     0.794010000000     0.866340000000     0.043567   
H114     H      0.194420000000     0.696560000000     0.866360000000     0.0437769  
H115     H      0.194160000000     0.696810000000     0.792820000000     0.0437406  
H116     H      0.291610000000     0.793760000000     0.792810000000     0.0435229  
H117     H      0.194430000000     0.946560000000     0.866390000000     0.0437579  
H118     H      0.291380000000     0.544030000000     0.866460000000     0.0435394  
H119     H      0.291620000000     0.543780000000     0.792920000000     0.0435395  
H120     H      0.194170000000     0.946800000000     0.792850000000     0.0437476  
H121     H      0.367210000000     0.689120000000     0.996230000000     0.0437435  
H122     H      0.423380000000     0.801470000000     0.996220000000     0.0437436  
H123     H      0.368620000000     0.801470000000     0.996240000000     0.0437819  
H124     H      0.312450000000     0.689120000000     0.996220000000     0.0438102  
H125     H      0.118630000000     0.801470000000     0.996270000000     0.0441935  
H126     H      0.062450000000     0.689120000000     0.996260000000     0.0453489  
H127     H      0.117210000000     0.689120000000     0.996270000000     0.044252   
H128     H      0.173380000000     0.801470000000     0.996270000000     0.0438479  
H129     H      0.041420000000     0.794030000000     0.866360000000     0.043072   
H130     H      0.444470000000     0.696580000000     0.866340000000     0.0435482  
H131     H      0.444240000000     0.696830000000     0.792800000000     0.0435307  
H132     H      0.041680000000     0.793790000000     0.792820000000     0.0431362  
H133     H      0.423390000000     0.551480000000     0.996340000000     0.0437611  
H134     H      0.367220000000     0.939130000000     0.996270000000     0.0437473  
H135     H      0.312460000000     0.939130000000     0.996250000000     0.043765   
H136     H      0.368630000000     0.551480000000     0.996350000000     0.0437515  
H137     H      0.118630000000     0.551480000000     0.996390000000     0.0441863  
H138     H      0.062460000000     0.939130000000     0.996300000000     0.0453373  
H139     H      0.117220000000     0.939130000000     0.996300000000     0.0442443  
H140     H      0.173390000000     0.551480000000     0.996380000000     0.0438566  
H141     H      0.444480000000     0.946580000000     0.866370000000     0.0435374  
H142     H      0.041430000000     0.544040000000     0.866470000000     0.0430486  
H143     H      0.041690000000     0.543800000000     0.792940000000     0.0431421  
H144     H      0.444240000000     0.946820000000     0.792840000000     0.0435164  
H145     H      0.291400000000     0.745050000000     0.459490000000     0.0435303  
H146     H      0.194440000000     0.745530000000     0.459470000000     0.0437943  
H147     H      0.194180000000     0.745030000000     0.533010000000     0.0437541  
H148     H      0.291630000000     0.745530000000     0.533030000000     0.0435259  
H149     H      0.242690000000     0.793780000000     0.199680000000     0.0437551  
H150     H      0.243190000000     0.696830000000     0.199690000000     0.0437546  
H151     H      0.242690000000     0.696580000000     0.126150000000     0.0439752  
H152     H      0.243180000000     0.794020000000     0.126150000000     0.0439645  
H153     H      0.291400000000     0.495040000000     0.459600000000     0.0435432  
H154     H      0.194410000000     0.995520000000     0.459500000000     0.0436942  
H155     H      0.194160000000     0.995030000000     0.533030000000     0.0437402  
H156     H      0.291640000000     0.495520000000     0.533140000000     0.0434883  
H157     H      0.242690000000     0.543770000000     0.199800000000     0.0437313  
H158     H      0.243200000000     0.946850000000     0.199710000000     0.0437627  
H159     H      0.242710000000     0.946600000000     0.126170000000     0.0439458  
H160     H      0.243180000000     0.544020000000     0.126260000000     0.0440013  
H161     H      0.444490000000     0.745560000000     0.459490000000     0.0435458  
H162     H      0.041440000000     0.745070000000     0.459470000000     0.0430722  
H163     H      0.041700000000     0.745570000000     0.533010000000     0.0431092  
H164     H      0.444250000000     0.745060000000     0.533030000000     0.0435223  
H165     H      0.423400000000     0.619590000000     0.329640000000     0.043962   
H166     H      0.367230000000     0.675760000000     0.329630000000     0.0439715  
H167     H      0.312470000000     0.621000000000     0.329680000000     0.0439724  
H168     H      0.368650000000     0.564830000000     0.329660000000     0.043948   
H169     H      0.118640000000     0.814840000000     0.329540000000     0.0443713  
H170     H      0.062460000000     0.871000000000     0.329560000000     0.0455438  
H171     H      0.117220000000     0.925770000000     0.329560000000     0.0443905  
H172     H      0.173400000000     0.869600000000     0.329570000000     0.0440344  
H173     H      0.992650000000     0.793760000000     0.199690000000     0.0424737  
H174     H      0.493150000000     0.696810000000     0.199680000000     0.0436232  
H175     H      0.492650000000     0.696560000000     0.126140000000     0.0438703  
H176     H      0.993140000000     0.794000000000     0.126150000000     0.0422251  
H177     H      0.944500000000     0.495560000000     0.459600000000     0.0430708  
H178     H      0.541420000000     0.995060000000     0.459500000000     0.0435052  
H179     H      0.541680000000     0.995570000000     0.533030000000     0.0435144  
H180     H      0.944260000000     0.495070000000     0.533140000000     0.0430566  
H181     H      0.312460000000     0.871010000000     0.329600000000     0.0439804  
H182     H      0.368640000000     0.814840000000     0.329580000000     0.0439745  
H183     H      0.423400000000     0.869600000000     0.329600000000     0.0439042  
H184     H      0.367220000000     0.925770000000     0.329600000000     0.0438952  
H185     H      0.062470000000     0.621000000000     0.329640000000     0.0455471  
H186     H      0.118650000000     0.564830000000     0.329630000000     0.0443519  
H187     H      0.173400000000     0.619590000000     0.329600000000     0.0440295  
H188     H      0.117230000000     0.675760000000     0.329600000000     0.0444495  
H189     H      0.492660000000     0.543760000000     0.199800000000     0.0436309  
H190     H      0.993170000000     0.946830000000     0.199710000000     0.0419803  
H191     H      0.992670000000     0.946580000000     0.126170000000     0.042706   
H192     H      0.493150000000     0.544010000000     0.126270000000     0.0438221  
H193     H      0.799070000000     0.425750000000     0.663060000000     0.0439175  
H194     H      0.686730000000     0.369580000000     0.663050000000     0.0439581  
H195     H      0.686720000000     0.314820000000     0.663070000000     0.0439295  
H196     H      0.799070000000     0.370990000000     0.663060000000     0.0438953  
H197     H      0.799060000000     0.120980000000     0.662970000000     0.0439237  
H198     H      0.686710000000     0.064810000000     0.662980000000     0.043984   
H199     H      0.686720000000     0.119570000000     0.663010000000     0.0439915  
H200     H      0.799060000000     0.175740000000     0.663010000000     0.0439212  
H201     H      0.936810000000     0.369610000000     0.663050000000     0.0435814  
H202     H      0.049160000000     0.425780000000     0.663060000000     0.0432498  
H203     H      0.049160000000     0.371020000000     0.663060000000     0.0432815  
H204     H      0.936810000000     0.314850000000     0.663070000000     0.0436165  
H205     H      0.049140000000     0.121020000000     0.662970000000     0.0432613  
H206     H      0.936790000000     0.064850000000     0.662990000000     0.0436194  
H207     H      0.936800000000     0.119610000000     0.663010000000     0.04362    
H208     H      0.049140000000     0.175780000000     0.663010000000     0.0432713  
H209     H      0.791400000000     0.294000000000     0.866470000000     0.0434402  
H210     H      0.694450000000     0.196560000000     0.866500000000     0.0435674  
H211     H      0.694190000000     0.196800000000     0.792960000000     0.0435926  
H212     H      0.791630000000     0.293750000000     0.792940000000     0.0434775  
H213     H      0.694430000000     0.446580000000     0.866470000000     0.0435618  
H214     H      0.791380000000     0.044010000000     0.866360000000     0.043432   
H215     H      0.791610000000     0.043750000000     0.792830000000     0.043454   
H216     H      0.694170000000     0.446830000000     0.792930000000     0.0435629  
H217     H      0.867250000000     0.189120000000     0.996370000000     0.04364    
H218     H      0.923420000000     0.301470000000     0.996360000000     0.0426887  
H219     H      0.868670000000     0.301460000000     0.996370000000     0.0436119  
H220     H      0.812490000000     0.189120000000     0.996360000000     0.0438098  
H221     H      0.618670000000     0.301470000000     0.996410000000     0.0437948  
H222     H      0.562490000000     0.189120000000     0.996400000000     0.0437815  
H223     H      0.617250000000     0.189120000000     0.996420000000     0.0437764  
H224     H      0.673420000000     0.301460000000     0.996400000000     0.0437914  
H225     H      0.541460000000     0.294020000000     0.866490000000     0.0435457  
H226     H      0.944500000000     0.196570000000     0.866480000000     0.0430514  
H227     H      0.944260000000     0.196830000000     0.792950000000     0.0431103  
H228     H      0.541710000000     0.293780000000     0.792960000000     0.0435733  
H229     H      0.923400000000     0.051480000000     0.996240000000     0.0426828  
H230     H      0.867220000000     0.439130000000     0.996340000000     0.0436515  
H231     H      0.812460000000     0.439130000000     0.996330000000     0.0437931  
H232     H      0.868640000000     0.051480000000     0.996250000000     0.0435591  
H233     H      0.618640000000     0.051480000000     0.996290000000     0.0437668  
H234     H      0.562460000000     0.439130000000     0.996370000000     0.0437631  
H235     H      0.617210000000     0.439130000000     0.996380000000     0.0437886  
H236     H      0.673400000000     0.051480000000     0.996280000000     0.0437618  
H237     H      0.944480000000     0.446600000000     0.866450000000     0.0430719  
H238     H      0.541430000000     0.044020000000     0.866380000000     0.0435612  
H239     H      0.541690000000     0.043780000000     0.792840000000     0.0435327  
H240     H      0.944240000000     0.446850000000     0.792910000000     0.0430802  
H241     H      0.791380000000     0.245040000000     0.459620000000     0.0434784  
H242     H      0.694430000000     0.245540000000     0.459610000000     0.0435905  
H243     H      0.694170000000     0.245040000000     0.533140000000     0.0435342  
H244     H      0.791610000000     0.245530000000     0.533160000000     0.0434469  
H245     H      0.742730000000     0.293790000000     0.199810000000     0.0436265  
H246     H      0.743210000000     0.196830000000     0.199830000000     0.0436252  
H247     H      0.742730000000     0.196580000000     0.126290000000     0.0438584  
H248     H      0.743220000000     0.294030000000     0.126280000000     0.0438647  
H249     H      0.791370000000     0.995030000000     0.459510000000     0.0434072  
H250     H      0.694450000000     0.495530000000     0.459580000000     0.0435722  
H251     H      0.694190000000     0.495020000000     0.533120000000     0.0435592  
H252     H      0.791600000000     0.995520000000     0.533050000000     0.0434162  
H253     H      0.742710000000     0.043800000000     0.199710000000     0.0436176  
H254     H      0.743190000000     0.446820000000     0.199790000000     0.0436257  
H255     H      0.742690000000     0.446580000000     0.126250000000     0.0438629  
H256     H      0.743200000000     0.044040000000     0.126170000000     0.0438344  
H257     H      0.944480000000     0.245560000000     0.459620000000     0.0430599  
H258     H      0.541430000000     0.245060000000     0.459610000000     0.0435461  
H259     H      0.541680000000     0.245570000000     0.533140000000     0.0435846  
H260     H      0.944240000000     0.245080000000     0.533160000000     0.0430879  
H261     H      0.923390000000     0.119590000000     0.329710000000     0.04292    
H262     H      0.867230000000     0.175770000000     0.329690000000     0.0438416  
H263     H      0.812470000000     0.121010000000     0.329670000000     0.0440029  
H264     H      0.868640000000     0.064830000000     0.329670000000     0.0437879  
H265     H      0.618640000000     0.314830000000     0.329700000000     0.0439943  
H266     H      0.562470000000     0.371000000000     0.329710000000     0.0439351  
H267     H      0.617230000000     0.425760000000     0.329690000000     0.043984   
H268     H      0.673400000000     0.369590000000     0.329700000000     0.0439858  
H269     H      0.492690000000     0.293770000000     0.199820000000     0.0436066  
H270     H      0.993180000000     0.196810000000     0.199820000000     0.0419647  
H271     H      0.992690000000     0.196570000000     0.126290000000     0.0427568  
H272     H      0.493190000000     0.294010000000     0.126280000000     0.0438718  
H273     H      0.444470000000     0.995560000000     0.459510000000     0.0434629  
H274     H      0.041450000000     0.495070000000     0.459580000000     0.0430763  
H275     H      0.041710000000     0.495560000000     0.533120000000     0.0430775  
H276     H      0.444230000000     0.995070000000     0.533050000000     0.0435211  
H277     H      0.812480000000     0.371010000000     0.329750000000     0.0439914  
H278     H      0.868640000000     0.314830000000     0.329740000000     0.0437874  
H279     H      0.923400000000     0.369590000000     0.329740000000     0.0428985  
H280     H      0.867230000000     0.425760000000     0.329730000000     0.0438233  
H281     H      0.562470000000     0.121010000000     0.329630000000     0.043972   
H282     H      0.618640000000     0.064840000000     0.329630000000     0.0439976  
H283     H      0.673400000000     0.119590000000     0.329670000000     0.0439799  
H284     H      0.617230000000     0.175770000000     0.329660000000     0.0440047  
H285     H      0.992680000000     0.043780000000     0.199710000000     0.0425375  
H286     H      0.493150000000     0.446810000000     0.199790000000     0.0436402  
H287     H      0.492660000000     0.446560000000     0.126250000000     0.0438375  
H288     H      0.993170000000     0.044030000000     0.126170000000     0.0421762  
H289     H      0.799060000000     0.925740000000     0.662930000000     0.0439002  
H290     H      0.686710000000     0.869570000000     0.662910000000     0.0439625  
H291     H      0.686710000000     0.814810000000     0.662910000000     0.0439511  
H292     H      0.799060000000     0.870990000000     0.662910000000     0.0438966  
H293     H      0.799070000000     0.620990000000     0.662980000000     0.043907   
H294     H      0.686730000000     0.564820000000     0.662980000000     0.0439644  
H295     H      0.686720000000     0.619570000000     0.662940000000     0.0439729  
H296     H      0.799070000000     0.675750000000     0.662960000000     0.0439218  
H297     H      0.936790000000     0.869600000000     0.662910000000     0.0435931  
H298     H      0.049140000000     0.925780000000     0.662920000000     0.0432313  
H299     H      0.049140000000     0.871020000000     0.662910000000     0.0432665  
H300     H      0.936790000000     0.814840000000     0.662910000000     0.0436062  
H301     H      0.049150000000     0.621030000000     0.662980000000     0.0432678  
H302     H      0.936810000000     0.564850000000     0.662980000000     0.043627   
H303     H      0.936800000000     0.619610000000     0.662940000000     0.0435882  
H304     H      0.049150000000     0.675780000000     0.662960000000     0.0432454  
H305     H      0.791370000000     0.794010000000     0.866340000000     0.0434684  
H306     H      0.694420000000     0.696560000000     0.866360000000     0.0435837  
H307     H      0.694160000000     0.696810000000     0.792820000000     0.0435431  
H308     H      0.791610000000     0.793760000000     0.792810000000     0.0434428  
H309     H      0.694430000000     0.946560000000     0.866390000000     0.0435589  
H310     H      0.791380000000     0.544030000000     0.866460000000     0.0434468  
H311     H      0.791620000000     0.543780000000     0.792920000000     0.0434603  
H312     H      0.694170000000     0.946800000000     0.792850000000     0.0435516  
H313     H      0.867210000000     0.689120000000     0.996230000000     0.0436356  
H314     H      0.923380000000     0.801470000000     0.996220000000     0.0426958  
H315     H      0.868620000000     0.801470000000     0.996240000000     0.0436055  
H316     H      0.812450000000     0.689120000000     0.996220000000     0.0438282  
H317     H      0.618630000000     0.801470000000     0.996270000000     0.0437929  
H318     H      0.562450000000     0.689120000000     0.996260000000     0.0437742  
H319     H      0.617210000000     0.689120000000     0.996270000000     0.0437855  
H320     H      0.673380000000     0.801470000000     0.996270000000     0.0437846  
H321     H      0.541420000000     0.794030000000     0.866360000000     0.0435816  
H322     H      0.944470000000     0.696580000000     0.866340000000     0.0430746  
H323     H      0.944240000000     0.696830000000     0.792800000000     0.0430752  
H324     H      0.541680000000     0.793790000000     0.792820000000     0.0435647  
H325     H      0.923390000000     0.551480000000     0.996340000000     0.0427108  
H326     H      0.867220000000     0.939130000000     0.996270000000     0.0436388  
H327     H      0.812460000000     0.939130000000     0.996250000000     0.0437801  
H328     H      0.868630000000     0.551480000000     0.996350000000     0.0435755  
H329     H      0.618630000000     0.551480000000     0.996390000000     0.0437855  
H330     H      0.562460000000     0.939130000000     0.996300000000     0.0437556  
H331     H      0.617220000000     0.939130000000     0.996300000000     0.0437703  
H332     H      0.673390000000     0.551480000000     0.996380000000     0.0437926  
H333     H      0.944480000000     0.946580000000     0.866370000000     0.0430651  
H334     H      0.541430000000     0.544040000000     0.866470000000     0.0435768  
H335     H      0.541690000000     0.543800000000     0.792940000000     0.043563   
H336     H      0.944240000000     0.946820000000     0.792840000000     0.0430586  
H337     H      0.791390000000     0.745050000000     0.459490000000     0.0434561  
H338     H      0.694440000000     0.745530000000     0.459470000000     0.0435681  
H339     H      0.694180000000     0.745030000000     0.533010000000     0.0435677  
H340     H      0.791630000000     0.745530000000     0.533030000000     0.0434438  
H341     H      0.742690000000     0.793780000000     0.199680000000     0.0436343  
H342     H      0.743190000000     0.696830000000     0.199690000000     0.043633   
H343     H      0.742690000000     0.696580000000     0.126150000000     0.0438539  
H344     H      0.743180000000     0.794020000000     0.126150000000     0.0438434  
H345     H      0.791400000000     0.495040000000     0.459600000000     0.0434404  
H346     H      0.694410000000     0.995520000000     0.459500000000     0.0435009  
H347     H      0.694160000000     0.995030000000     0.533030000000     0.0435405  
H348     H      0.791640000000     0.495520000000     0.533140000000     0.0434375  
H349     H      0.742690000000     0.543770000000     0.199800000000     0.0436111  
H350     H      0.743200000000     0.946850000000     0.199710000000     0.0436425  
H351     H      0.742710000000     0.946600000000     0.126170000000     0.0438249  
H352     H      0.743180000000     0.544020000000     0.126260000000     0.0438776  
H353     H      0.944490000000     0.745560000000     0.459490000000     0.0430734  
H354     H      0.541440000000     0.745070000000     0.459470000000     0.0435794  
H355     H      0.541700000000     0.745570000000     0.533010000000     0.043535   
H356     H      0.944250000000     0.745060000000     0.533030000000     0.0430654  
H357     H      0.923400000000     0.619590000000     0.329640000000     0.0429037  
H358     H      0.867220000000     0.675760000000     0.329630000000     0.0438414  
H359     H      0.812470000000     0.621000000000     0.329680000000     0.0439957  
H360     H      0.868640000000     0.564830000000     0.329660000000     0.0437923  
H361     H      0.618640000000     0.814840000000     0.329540000000     0.0439704  
H362     H      0.562460000000     0.871000000000     0.329560000000     0.0439705  
H363     H      0.617220000000     0.925770000000     0.329560000000     0.0439238  
H364     H      0.673400000000     0.869600000000     0.329570000000     0.0439703  
H365     H      0.492650000000     0.793760000000     0.199690000000     0.043597   
H366     H      0.993150000000     0.696810000000     0.199680000000     0.041954   
H367     H      0.992650000000     0.696560000000     0.126140000000     0.0427673  
H368     H      0.493140000000     0.794000000000     0.126150000000     0.0438693  
H369     H      0.444500000000     0.495560000000     0.459600000000     0.0435413  
H370     H      0.041420000000     0.995060000000     0.459500000000     0.0430431  
H371     H      0.041680000000     0.995570000000     0.533030000000     0.0430681  
H372     H      0.444260000000     0.495070000000     0.533140000000     0.0435178  
H373     H      0.812460000000     0.871010000000     0.329600000000     0.0439924  
H374     H      0.868640000000     0.814840000000     0.329580000000     0.0437907  
H375     H      0.923400000000     0.869600000000     0.329600000000     0.0428692  
H376     H      0.867220000000     0.925770000000     0.329600000000     0.0438042  
H377     H      0.562470000000     0.621000000000     0.329640000000     0.0439733  
H378     H      0.618650000000     0.564830000000     0.329630000000     0.0439521  
H379     H      0.673410000000     0.619590000000     0.329600000000     0.0439453  
H380     H      0.617230000000     0.675760000000     0.329600000000     0.0439808  
H381     H      0.992660000000     0.543760000000     0.199800000000     0.0425196  
H382     H      0.493170000000     0.946830000000     0.199710000000     0.0436313  
H383     H      0.492670000000     0.946580000000     0.126170000000     0.043817   
H384     H      0.993150000000     0.544010000000     0.126270000000     0.0421651  
O1       O      0.006660000000     0.479990000000     0.268730000000    -0.373356   
O2       O      0.008260000000     0.481570000000     0.390650000000    -0.375199   
O3       O      0.461830000000     0.435170000000     0.330490000000    -0.383369   
O4       O      0.053050000000     0.026410000000     0.328830000000    -0.383523   
O5       O      0.024040000000     0.055430000000     0.330390000000    -0.376443   
O6       O      0.432820000000     0.464190000000     0.328940000000    -0.383453   
O7       O      0.477640000000     0.009040000000     0.390570000000    -0.38241    
O8       O      0.479190000000     0.010610000000     0.268650000000    -0.382303   
O9       O      0.479200000000     0.260590000000     0.268760000000    -0.382655   
O10      O      0.477640000000     0.259040000000     0.390680000000    -0.382583   
O11      O      0.024040000000     0.305420000000     0.330490000000    -0.376372   
O12      O      0.432810000000     0.214190000000     0.328940000000    -0.383357   
O13      O      0.461830000000     0.185170000000     0.330500000000    -0.383353   
O14      O      0.053060000000     0.276400000000     0.328940000000    -0.383586   
O15      O      0.008240000000     0.231560000000     0.390680000000    -0.375192   
O16      O      0.006670000000     0.229990000000     0.268760000000    -0.373351   
O17      O      0.256680000000     0.479990000000     0.268740000000    -0.382483   
O18      O      0.258230000000     0.481550000000     0.390650000000    -0.38252    
O19      O      0.211830000000     0.435170000000     0.330470000000    -0.383285   
O20      O      0.303050000000     0.026410000000     0.328860000000    -0.383174   
O21      O      0.274030000000     0.055430000000     0.330400000000    -0.383371   
O22      O      0.182810000000     0.464190000000     0.328920000000    -0.383185   
O23      O      0.227610000000     0.009030000000     0.390560000000    -0.382353   
O24      O      0.229210000000     0.010620000000     0.268650000000    -0.38217    
O25      O      0.227620000000     0.259030000000     0.390670000000    -0.382581   
O26      O      0.229220000000     0.260610000000     0.268750000000    -0.382436   
O27      O      0.182810000000     0.214200000000     0.328910000000    -0.383159   
O28      O      0.274040000000     0.305420000000     0.330510000000    -0.383337   
O29      O      0.303060000000     0.276400000000     0.328960000000    -0.383398   
O30      O      0.211830000000     0.185180000000     0.330480000000    -0.383279   
O31      O      0.256690000000     0.230010000000     0.268770000000    -0.382594   
O32      O      0.258210000000     0.231550000000     0.390680000000    -0.382662   
O33      O      0.479170000000     0.466260000000     0.057310000000    -0.38134    
O34      O      0.477640000000     0.466270000000     0.935400000000    -0.382253   
O35      O      0.024030000000     0.466290000000     0.995590000000    -0.376559   
O36      O      0.432800000000     0.466290000000     0.997120000000    -0.383514   
O37      O      0.461830000000     0.024320000000     0.995480000000    -0.383304   
O38      O      0.053050000000     0.024320000000     0.997060000000    -0.383594   
O39      O      0.008240000000     0.024340000000     0.935310000000    -0.37477    
O40      O      0.006660000000     0.024340000000     0.057230000000    -0.371907   
O41      O      0.479210000000     0.216250000000     0.057340000000    -0.381168   
O42      O      0.477670000000     0.216260000000     0.935420000000    -0.382293   
O43      O      0.024060000000     0.216280000000     0.995620000000    -0.376561   
O44      O      0.432830000000     0.216280000000     0.997150000000    -0.383657   
O45      O      0.461850000000     0.274310000000     0.995600000000    -0.383564   
O46      O      0.053080000000     0.274310000000     0.997180000000    -0.383728   
O47      O      0.008270000000     0.274330000000     0.935430000000    -0.375037   
O48      O      0.006690000000     0.274330000000     0.057340000000    -0.372023   
O49      O      0.256680000000     0.024350000000     0.057230000000    -0.380957   
O50      O      0.258210000000     0.024330000000     0.935310000000    -0.382142   
O51      O      0.211820000000     0.024320000000     0.995500000000    -0.383315   
O52      O      0.303050000000     0.024320000000     0.997040000000    -0.383254   
O53      O      0.274030000000     0.466290000000     0.995570000000    -0.383552   
O54      O      0.182800000000     0.466290000000     0.997150000000    -0.383409   
O55      O      0.227620000000     0.466270000000     0.935400000000    -0.382327   
O56      O      0.229190000000     0.466260000000     0.057320000000    -0.381027   
O57      O      0.229230000000     0.216260000000     0.057350000000    -0.381      
O58      O      0.227640000000     0.216250000000     0.935430000000    -0.382343   
O59      O      0.274060000000     0.216280000000     0.995600000000    -0.383534   
O60      O      0.182830000000     0.216280000000     0.997180000000    -0.383425   
O61      O      0.211850000000     0.274310000000     0.995620000000    -0.383473   
O62      O      0.303080000000     0.274310000000     0.997150000000    -0.383493   
O63      O      0.258240000000     0.274320000000     0.935420000000    -0.382349   
O64      O      0.256710000000     0.274340000000     0.057340000000    -0.381095   
O65      O      0.463970000000     0.435200000000     0.662260000000    -0.383458   
O66      O      0.463950000000     0.026420000000     0.663730000000    -0.383203   
O67      O      0.463950000000     0.481570000000     0.602070000000    -0.382572   
O68      O      0.463940000000     0.480030000000     0.723980000000    -0.382591   
O69      O      0.022000000000     0.010600000000     0.723900000000    -0.37504    
O70      O      0.022000000000     0.009060000000     0.601980000000    -0.37484    
O71      O      0.021980000000     0.055430000000     0.662170000000    -0.375993   
O72      O      0.022000000000     0.464210000000     0.663820000000    -0.375917   
O73      O      0.463960000000     0.185190000000     0.662260000000    -0.383494   
O74      O      0.463960000000     0.276420000000     0.663840000000    -0.383343   
O75      O      0.463930000000     0.231580000000     0.602100000000    -0.382502   
O76      O      0.463940000000     0.230010000000     0.724010000000    -0.382623   
O77      O      0.022020000000     0.260610000000     0.724010000000    -0.375076   
O78      O      0.022010000000     0.259060000000     0.602090000000    -0.375048   
O79      O      0.022000000000     0.305440000000     0.662280000000    -0.375911   
O80      O      0.021990000000     0.214210000000     0.663810000000    -0.37595    
O81      O      0.213880000000     0.435160000000     0.662260000000    -0.383254   
O82      O      0.213870000000     0.026380000000     0.663730000000    -0.383151   
O83      O      0.213870000000     0.481540000000     0.602070000000    -0.382454   
O84      O      0.213860000000     0.479990000000     0.723980000000    -0.382481   
O85      O      0.271920000000     0.010570000000     0.723900000000    -0.382477   
O86      O      0.271920000000     0.009020000000     0.601980000000    -0.382313   
O87      O      0.271900000000     0.055400000000     0.662170000000    -0.383365   
O88      O      0.271920000000     0.464180000000     0.663820000000    -0.383333   
O89      O      0.213870000000     0.185160000000     0.662260000000    -0.383228   
O90      O      0.213880000000     0.276390000000     0.663840000000    -0.383299   
O91      O      0.213850000000     0.231550000000     0.602090000000    -0.382437   
O92      O      0.213860000000     0.229980000000     0.724010000000    -0.382396   
O93      O      0.271940000000     0.260570000000     0.724000000000    -0.382556   
O94      O      0.271930000000     0.259020000000     0.602090000000    -0.382579   
O95      O      0.271910000000     0.305400000000     0.662280000000    -0.383455   
O96      O      0.271910000000     0.214170000000     0.663820000000    -0.383311   
O97      O      0.006670000000     0.980010000000     0.268650000000    -0.373382   
O98      O      0.008230000000     0.981560000000     0.390560000000    -0.375088   
O99      O      0.461820000000     0.935180000000     0.330380000000    -0.383377   
O100     O      0.053060000000     0.526400000000     0.328890000000    -0.383672   
O101     O      0.024050000000     0.555420000000     0.330450000000    -0.376401   
O102     O      0.432810000000     0.964200000000     0.328830000000    -0.383618   
O103     O      0.477660000000     0.509050000000     0.390660000000    -0.382491   
O104     O      0.479180000000     0.510580000000     0.268740000000    -0.382592   
O105     O      0.479170000000     0.760580000000     0.268630000000    -0.382524   
O106     O      0.477650000000     0.759050000000     0.390540000000    -0.382568   
O107     O      0.024040000000     0.805420000000     0.330340000000    -0.376487   
O108     O      0.432810000000     0.714190000000     0.328830000000    -0.383366   
O109     O      0.461830000000     0.685180000000     0.330370000000    -0.383415   
O110     O      0.053060000000     0.776410000000     0.328780000000    -0.383632   
O111     O      0.008250000000     0.731570000000     0.390540000000    -0.375194   
O112     O      0.006650000000     0.729990000000     0.268620000000    -0.373475   
O113     O      0.256690000000     0.980020000000     0.268650000000    -0.382384   
O114     O      0.258200000000     0.981550000000     0.390570000000    -0.382519   
O115     O      0.211820000000     0.935180000000     0.330370000000    -0.383257   
O116     O      0.303060000000     0.526400000000     0.328910000000    -0.383338   
O117     O      0.274040000000     0.555420000000     0.330470000000    -0.383289   
O118     O      0.182800000000     0.964200000000     0.328800000000    -0.383317   
O119     O      0.227640000000     0.509030000000     0.390650000000    -0.38255    
O120     O      0.229200000000     0.510590000000     0.268740000000    -0.38237    
O121     O      0.227630000000     0.759040000000     0.390540000000    -0.382474   
O122     O      0.229200000000     0.760600000000     0.268620000000    -0.382377   
O123     O      0.182810000000     0.714190000000     0.328800000000    -0.383155   
O124     O      0.274040000000     0.805430000000     0.330360000000    -0.383281   
O125     O      0.303060000000     0.776410000000     0.328810000000    -0.383353   
O126     O      0.211830000000     0.685180000000     0.330360000000    -0.38338    
O127     O      0.256680000000     0.730010000000     0.268630000000    -0.382638   
O128     O      0.258230000000     0.731560000000     0.390540000000    -0.382542   
O129     O      0.479180000000     0.966270000000     0.057230000000    -0.381125   
O130     O      0.477640000000     0.966260000000     0.935320000000    -0.382304   
O131     O      0.024040000000     0.966290000000     0.995510000000    -0.376616   
O132     O      0.432810000000     0.966290000000     0.997040000000    -0.383491   
O133     O      0.461820000000     0.524320000000     0.995580000000    -0.383564   
O134     O      0.053050000000     0.524320000000     0.997160000000    -0.38388    
O135     O      0.008240000000     0.524350000000     0.935410000000    -0.375058   
O136     O      0.006650000000     0.524330000000     0.057320000000    -0.372053   
O137     O      0.479160000000     0.716250000000     0.057200000000    -0.381216   
O138     O      0.477630000000     0.716260000000     0.935290000000    -0.382404   
O139     O      0.024020000000     0.716280000000     0.995480000000    -0.376568   
O140     O      0.432790000000     0.716280000000     0.997010000000    -0.383656   
O141     O      0.461810000000     0.774310000000     0.995460000000    -0.383541   
O142     O      0.053040000000     0.774310000000     0.997040000000    -0.383728   
O143     O      0.008230000000     0.774340000000     0.935290000000    -0.374938   
O144     O      0.006640000000     0.774330000000     0.057210000000    -0.371901   
O145     O      0.256670000000     0.524340000000     0.057320000000    -0.381152   
O146     O      0.258210000000     0.524340000000     0.935400000000    -0.382446   
O147     O      0.211820000000     0.524320000000     0.995600000000    -0.38345    
O148     O      0.303050000000     0.524320000000     0.997130000000    -0.383524   
O149     O      0.274040000000     0.966290000000     0.995490000000    -0.383483   
O150     O      0.182810000000     0.966290000000     0.997070000000    -0.383385   
O151     O      0.227620000000     0.966260000000     0.935320000000    -0.382299   
O152     O      0.229200000000     0.966280000000     0.057240000000    -0.381096   
O153     O      0.229190000000     0.716260000000     0.057210000000    -0.381081   
O154     O      0.227610000000     0.716250000000     0.935290000000    -0.382261   
O155     O      0.274020000000     0.716270000000     0.995460000000    -0.383378   
O156     O      0.182790000000     0.716270000000     0.997040000000    -0.383308   
O157     O      0.211810000000     0.774310000000     0.995480000000    -0.383414   
O158     O      0.303040000000     0.774310000000     0.997010000000    -0.383447   
O159     O      0.258210000000     0.774330000000     0.935290000000    -0.382304   
O160     O      0.256670000000     0.774330000000     0.057210000000    -0.381292   
O161     O      0.463950000000     0.935190000000     0.662150000000    -0.383413   
O162     O      0.463970000000     0.526430000000     0.663790000000    -0.383511   
O163     O      0.463920000000     0.981580000000     0.601990000000    -0.382513   
O164     O      0.463930000000     0.980000000000     0.723900000000    -0.382586   
O165     O      0.022020000000     0.510630000000     0.723990000000    -0.375049   
O166     O      0.022020000000     0.509050000000     0.602070000000    -0.375138   
O167     O      0.022000000000     0.555440000000     0.662240000000    -0.375922   
O168     O      0.021980000000     0.964200000000     0.663700000000    -0.376089   
O169     O      0.463960000000     0.685190000000     0.662140000000    -0.383348   
O170     O      0.463950000000     0.776420000000     0.663690000000    -0.383374   
O171     O      0.463940000000     0.731570000000     0.601960000000    -0.38263    
O172     O      0.463930000000     0.730010000000     0.723870000000    -0.382527   
O173     O      0.022010000000     0.760620000000     0.723880000000    -0.374976   
O174     O      0.022010000000     0.759050000000     0.601960000000    -0.375132   
O175     O      0.021990000000     0.805440000000     0.662140000000    -0.375882   
O176     O      0.021990000000     0.714210000000     0.663700000000    -0.375968   
O177     O      0.213860000000     0.935150000000     0.662160000000    -0.383265   
O178     O      0.213880000000     0.526390000000     0.663790000000    -0.383282   
O179     O      0.213840000000     0.981540000000     0.601980000000    -0.38238    
O180     O      0.213850000000     0.979970000000     0.723900000000    -0.382441   
O181     O      0.271940000000     0.510590000000     0.723990000000    -0.382557   
O182     O      0.271940000000     0.509020000000     0.602070000000    -0.382631   
O183     O      0.271920000000     0.555410000000     0.662230000000    -0.383356   
O184     O      0.271900000000     0.964170000000     0.663710000000    -0.383502   
O185     O      0.213880000000     0.685150000000     0.662140000000    -0.383458   
O186     O      0.213870000000     0.776380000000     0.663680000000    -0.383312   
O187     O      0.213860000000     0.731540000000     0.601960000000    -0.3825     
O188     O      0.213850000000     0.729980000000     0.723870000000    -0.382471   
O189     O      0.271920000000     0.760580000000     0.723880000000    -0.382686   
O190     O      0.271930000000     0.759020000000     0.601960000000    -0.382642   
O191     O      0.271900000000     0.805400000000     0.662140000000    -0.383461   
O192     O      0.271910000000     0.714180000000     0.663700000000    -0.383551   
O193     O      0.506660000000     0.479990000000     0.268730000000    -0.382553   
O194     O      0.508260000000     0.481570000000     0.390650000000    -0.382597   
O195     O      0.961830000000     0.435170000000     0.330490000000    -0.389434   
O196     O      0.553050000000     0.026410000000     0.328830000000    -0.383233   
O197     O      0.524040000000     0.055430000000     0.330390000000    -0.383382   
O198     O      0.932820000000     0.464190000000     0.328940000000    -0.382426   
O199     O      0.977630000000     0.009040000000     0.390570000000    -0.380768   
O200     O      0.979190000000     0.010610000000     0.268650000000    -0.379992   
O201     O      0.979190000000     0.260590000000     0.268760000000    -0.38021    
O202     O      0.977640000000     0.259040000000     0.390680000000    -0.381069   
O203     O      0.524040000000     0.305420000000     0.330490000000    -0.383337   
O204     O      0.932810000000     0.214190000000     0.328940000000    -0.38233    
O205     O      0.961830000000     0.185170000000     0.330500000000    -0.389381   
O206     O      0.553060000000     0.276400000000     0.328940000000    -0.383324   
O207     O      0.508240000000     0.231560000000     0.390680000000    -0.382564   
O208     O      0.506670000000     0.229990000000     0.268760000000    -0.382572   
O209     O      0.756680000000     0.479990000000     0.268740000000    -0.382522   
O210     O      0.758230000000     0.481550000000     0.390650000000    -0.382553   
O211     O      0.711830000000     0.435170000000     0.330470000000    -0.383322   
O212     O      0.803050000000     0.026410000000     0.328860000000    -0.383199   
O213     O      0.774030000000     0.055430000000     0.330400000000    -0.383357   
O214     O      0.682810000000     0.464190000000     0.328920000000    -0.383367   
O215     O      0.727610000000     0.009030000000     0.390560000000    -0.382393   
O216     O      0.729210000000     0.010620000000     0.268650000000    -0.382302   
O217     O      0.727620000000     0.259030000000     0.390670000000    -0.382572   
O218     O      0.729220000000     0.260610000000     0.268750000000    -0.382569   
O219     O      0.682810000000     0.214200000000     0.328910000000    -0.38334    
O220     O      0.774050000000     0.305420000000     0.330510000000    -0.383435   
O221     O      0.803060000000     0.276400000000     0.328960000000    -0.383491   
O222     O      0.711830000000     0.185180000000     0.330480000000    -0.383325   
O223     O      0.756690000000     0.230010000000     0.268770000000    -0.382629   
O224     O      0.758220000000     0.231550000000     0.390680000000    -0.382557   
O225     O      0.979170000000     0.466260000000     0.057310000000    -0.379029   
O226     O      0.977640000000     0.466270000000     0.935400000000    -0.380749   
O227     O      0.524030000000     0.466290000000     0.995590000000    -0.38352    
O228     O      0.932800000000     0.466290000000     0.997120000000    -0.382497   
O229     O      0.961830000000     0.024320000000     0.995480000000    -0.389347   
O230     O      0.553060000000     0.024320000000     0.997060000000    -0.383192   
O231     O      0.508240000000     0.024340000000     0.935310000000    -0.38209    
O232     O      0.506660000000     0.024340000000     0.057230000000    -0.38102    
O233     O      0.979210000000     0.216250000000     0.057340000000    -0.378868   
O234     O      0.977670000000     0.216260000000     0.935420000000    -0.380787   
O235     O      0.524060000000     0.216280000000     0.995620000000    -0.383509   
O236     O      0.932830000000     0.216280000000     0.997150000000    -0.382638   
O237     O      0.961850000000     0.274310000000     0.995600000000    -0.389592   
O238     O      0.553080000000     0.274310000000     0.997180000000    -0.383457   
O239     O      0.508270000000     0.274330000000     0.935430000000    -0.382403   
O240     O      0.506690000000     0.274330000000     0.057340000000    -0.38118    
O241     O      0.756680000000     0.024350000000     0.057230000000    -0.380989   
O242     O      0.758220000000     0.024330000000     0.935310000000    -0.382161   
O243     O      0.711820000000     0.024320000000     0.995500000000    -0.383267   
O244     O      0.803050000000     0.024320000000     0.997040000000    -0.383238   
O245     O      0.774030000000     0.466290000000     0.995570000000    -0.383536   
O246     O      0.682800000000     0.466290000000     0.997150000000    -0.383596   
O247     O      0.727620000000     0.466270000000     0.935400000000    -0.38238    
O248     O      0.729190000000     0.466260000000     0.057320000000    -0.381168   
O249     O      0.729230000000     0.216260000000     0.057350000000    -0.381139   
O250     O      0.727640000000     0.216250000000     0.935430000000    -0.382393   
O251     O      0.774060000000     0.216280000000     0.995600000000    -0.383518   
O252     O      0.682830000000     0.216280000000     0.997180000000    -0.383611   
O253     O      0.711850000000     0.274310000000     0.995620000000    -0.383515   
O254     O      0.803080000000     0.274310000000     0.997150000000    -0.383522   
O255     O      0.758240000000     0.274320000000     0.935420000000    -0.38238    
O256     O      0.756710000000     0.274340000000     0.057340000000    -0.381133   
O257     O      0.963970000000     0.435200000000     0.662260000000    -0.381588   
O258     O      0.963950000000     0.026420000000     0.663730000000    -0.381345   
O259     O      0.963950000000     0.481570000000     0.602070000000    -0.380705   
O260     O      0.963940000000     0.480030000000     0.723980000000    -0.380721   
O261     O      0.522000000000     0.010600000000     0.723900000000    -0.38248    
O262     O      0.522000000000     0.009060000000     0.601980000000    -0.382267   
O263     O      0.521980000000     0.055430000000     0.662170000000    -0.383433   
O264     O      0.522000000000     0.464210000000     0.663820000000    -0.383378   
O265     O      0.963960000000     0.185190000000     0.662260000000    -0.381626   
O266     O      0.963960000000     0.276420000000     0.663840000000    -0.381479   
O267     O      0.963930000000     0.231580000000     0.602100000000    -0.380639   
O268     O      0.963940000000     0.230010000000     0.724010000000    -0.380755   
O269     O      0.522020000000     0.260610000000     0.724010000000    -0.382543   
O270     O      0.522010000000     0.259060000000     0.602090000000    -0.382513   
O271     O      0.522000000000     0.305440000000     0.662280000000    -0.383363   
O272     O      0.521990000000     0.214210000000     0.663810000000    -0.383399   
O273     O      0.713890000000     0.435160000000     0.662260000000    -0.383447   
O274     O      0.713870000000     0.026380000000     0.663730000000    -0.383217   
O275     O      0.713870000000     0.481540000000     0.602070000000    -0.382553   
O276     O      0.713860000000     0.479990000000     0.723980000000    -0.382582   
O277     O      0.771920000000     0.010570000000     0.723900000000    -0.38251    
O278     O      0.771920000000     0.009020000000     0.601980000000    -0.382351   
O279     O      0.771900000000     0.055400000000     0.662170000000    -0.383386   
O280     O      0.771920000000     0.464180000000     0.663820000000    -0.383426   
O281     O      0.713870000000     0.185160000000     0.662260000000    -0.383299   
O282     O      0.713880000000     0.276390000000     0.663840000000    -0.38337    
O283     O      0.713850000000     0.231550000000     0.602090000000    -0.382544   
O284     O      0.713860000000     0.229980000000     0.724010000000    -0.382501   
O285     O      0.771940000000     0.260570000000     0.724000000000    -0.382596   
O286     O      0.771930000000     0.259020000000     0.602090000000    -0.38262    
O287     O      0.771910000000     0.305400000000     0.662280000000    -0.383473   
O288     O      0.771910000000     0.214170000000     0.663820000000    -0.383328   
O289     O      0.506670000000     0.980010000000     0.268650000000    -0.382533   
O290     O      0.508230000000     0.981560000000     0.390560000000    -0.382498   
O291     O      0.961830000000     0.935180000000     0.330380000000    -0.389285   
O292     O      0.553060000000     0.526400000000     0.328890000000    -0.383469   
O293     O      0.524050000000     0.555420000000     0.330450000000    -0.383387   
O294     O      0.932810000000     0.964200000000     0.328830000000    -0.38252    
O295     O      0.977660000000     0.509050000000     0.390660000000    -0.380967   
O296     O      0.979180000000     0.510580000000     0.268740000000    -0.38026    
O297     O      0.979180000000     0.760580000000     0.268630000000    -0.38034    
O298     O      0.977650000000     0.759050000000     0.390540000000    -0.381137   
O299     O      0.524040000000     0.805420000000     0.330340000000    -0.383451   
O300     O      0.932810000000     0.714190000000     0.328830000000    -0.382361   
O301     O      0.961830000000     0.685180000000     0.330370000000    -0.389461   
O302     O      0.553060000000     0.776410000000     0.328780000000    -0.383367   
O303     O      0.508250000000     0.731570000000     0.390540000000    -0.38264    
O304     O      0.506650000000     0.729990000000     0.268620000000    -0.382603   
O305     O      0.756690000000     0.980020000000     0.268650000000    -0.38242    
O306     O      0.758200000000     0.981550000000     0.390570000000    -0.382545   
O307     O      0.711820000000     0.935180000000     0.330370000000    -0.383299   
O308     O      0.803060000000     0.526400000000     0.328910000000    -0.383367   
O309     O      0.774040000000     0.555420000000     0.330470000000    -0.38327    
O310     O      0.682800000000     0.964200000000     0.328800000000    -0.383508   
O311     O      0.727640000000     0.509030000000     0.390650000000    -0.382603   
O312     O      0.729200000000     0.510590000000     0.268740000000    -0.38251    
O313     O      0.727630000000     0.759040000000     0.390540000000    -0.382527   
O314     O      0.729200000000     0.760600000000     0.268620000000    -0.382517   
O315     O      0.682810000000     0.714190000000     0.328800000000    -0.383344   
O316     O      0.774040000000     0.805430000000     0.330360000000    -0.383266   
O317     O      0.803060000000     0.776410000000     0.328810000000    -0.383384   
O318     O      0.711830000000     0.685180000000     0.330360000000    -0.383425   
O319     O      0.756680000000     0.730010000000     0.268630000000    -0.382676   
O320     O      0.758230000000     0.731560000000     0.390540000000    -0.382575   
O321     O      0.979180000000     0.966270000000     0.057230000000    -0.37883    
O322     O      0.977640000000     0.966260000000     0.935320000000    -0.380805   
O323     O      0.524040000000     0.966290000000     0.995510000000    -0.383499   
O324     O      0.932810000000     0.966290000000     0.997040000000    -0.382482   
O325     O      0.961820000000     0.524320000000     0.995580000000    -0.389601   
O326     O      0.553050000000     0.524320000000     0.997160000000    -0.383612   
O327     O      0.508240000000     0.524350000000     0.935410000000    -0.382427   
O328     O      0.506650000000     0.524330000000     0.057320000000    -0.381222   
O329     O      0.979170000000     0.716250000000     0.057200000000    -0.378903   
O330     O      0.977630000000     0.716260000000     0.935290000000    -0.380895   
O331     O      0.524020000000     0.716280000000     0.995480000000    -0.383536   
O332     O      0.932790000000     0.716280000000     0.997010000000    -0.382645   
O333     O      0.961810000000     0.774310000000     0.995460000000    -0.389566   
O334     O      0.553040000000     0.774310000000     0.997040000000    -0.383454   
O335     O      0.508230000000     0.774340000000     0.935290000000    -0.382306   
O336     O      0.506650000000     0.774330000000     0.057210000000    -0.381069   
O337     O      0.756670000000     0.524340000000     0.057320000000    -0.381193   
O338     O      0.758210000000     0.524340000000     0.935400000000    -0.382479   
O339     O      0.711820000000     0.524320000000     0.995600000000    -0.383492   
O340     O      0.803050000000     0.524320000000     0.997130000000    -0.383553   
O341     O      0.774030000000     0.966290000000     0.995490000000    -0.383492   
O342     O      0.682810000000     0.966290000000     0.997070000000    -0.383501   
O343     O      0.727620000000     0.966260000000     0.935320000000    -0.382358   
O344     O      0.729200000000     0.966280000000     0.057240000000    -0.381246   
O345     O      0.729190000000     0.716260000000     0.057210000000    -0.381221   
O346     O      0.727610000000     0.716250000000     0.935290000000    -0.382313   
O347     O      0.774020000000     0.716270000000     0.995460000000    -0.383364   
O348     O      0.682790000000     0.716270000000     0.997040000000    -0.383493   
O349     O      0.711810000000     0.774310000000     0.995480000000    -0.383447   
O350     O      0.803040000000     0.774310000000     0.997010000000    -0.383486   
O351     O      0.758200000000     0.774330000000     0.935290000000    -0.382341   
O352     O      0.756670000000     0.774330000000     0.057210000000    -0.381332   
O353     O      0.963950000000     0.935190000000     0.662150000000    -0.381553   
O354     O      0.963970000000     0.526430000000     0.663790000000    -0.381636   
O355     O      0.963920000000     0.981580000000     0.601990000000    -0.38066    
O356     O      0.963930000000     0.980000000000     0.723900000000    -0.380725   
O357     O      0.522020000000     0.510630000000     0.723990000000    -0.382525   
O358     O      0.522020000000     0.509050000000     0.602070000000    -0.382615   
O359     O      0.522000000000     0.555440000000     0.662240000000    -0.383385   
O360     O      0.521980000000     0.964200000000     0.663700000000    -0.383544   
O361     O      0.963960000000     0.685190000000     0.662140000000    -0.38151    
O362     O      0.963950000000     0.776420000000     0.663690000000    -0.381445   
O363     O      0.963940000000     0.731570000000     0.601960000000    -0.380745   
O364     O      0.963930000000     0.730010000000     0.723870000000    -0.380717   
O365     O      0.522010000000     0.760620000000     0.723880000000    -0.38253    
O366     O      0.522010000000     0.759050000000     0.601960000000    -0.382622   
O367     O      0.521990000000     0.805440000000     0.662140000000    -0.383355   
O368     O      0.521990000000     0.714210000000     0.663700000000    -0.383437   
O369     O      0.713860000000     0.935150000000     0.662160000000    -0.383338   
O370     O      0.713880000000     0.526390000000     0.663790000000    -0.383353   
O371     O      0.713840000000     0.981540000000     0.601980000000    -0.382487   
O372     O      0.713850000000     0.979970000000     0.723900000000    -0.382545   
O373     O      0.771940000000     0.510590000000     0.723990000000    -0.382597   
O374     O      0.771940000000     0.509020000000     0.602070000000    -0.382667   
O375     O      0.771920000000     0.555410000000     0.662230000000    -0.383377   
O376     O      0.771900000000     0.964170000000     0.663710000000    -0.383521   
O377     O      0.713870000000     0.685150000000     0.662140000000    -0.383415   
O378     O      0.713870000000     0.776380000000     0.663680000000    -0.383403   
O379     O      0.713860000000     0.731540000000     0.601960000000    -0.382607   
O380     O      0.713850000000     0.729980000000     0.723870000000    -0.382579   
O381     O      0.771920000000     0.760580000000     0.723880000000    -0.382723   
O382     O      0.771930000000     0.759020000000     0.601960000000    -0.382679   
O383     O      0.771900000000     0.805400000000     0.662140000000    -0.383486   
O384     O      0.771910000000     0.714180000000     0.663700000000    -0.3835     


