data_structure

_audit_creation_method RASPA-1.0
_audit_creation_date 2023-5-22
_audit_author_name 'Poobodin Mano'

_cell_length_a    33.2351
_cell_length_b    33.2391
_cell_length_c    44.4473
_cell_angle_alpha 90
_cell_angle_beta  90
_cell_angle_gamma 90
_cell_volume      49101.1

_symmetry_cell_setting          triclinic
_symmetry_space_group_name_Hall 'P 1'
_symmetry_space_group_name_H-M  'P 1'
_symmetry_Int_Tables_number     1

_symmetry_equiv_pos_as_xyz 'x,y,z'

loop_
_atom_site_label
_atom_site_type_symbol
_atom_site_fract_x
_atom_site_fract_y
_atom_site_fract_z
_atom_site_charge
C1       C      0.329470000000     0.996480000000     0.437130000000     0.347408   
C2       C      0.329500000000     0.996610000000     0.056760000000     0.347013   
C3       C      0.249670000000     0.996640000000     0.496960000000     0.348105   
C4       C      0.409500000000     0.996470000000     0.996670000000     0.347278   
C5       C      0.330080000000     0.996610000000     0.306780000000     0.347411   
C6       C      0.328870000000     0.996470000000     0.187150000000     0.347132   
C7       C      0.249650000000     0.996840000000     0.247610000000     0.34812    
C8       C      0.409480000000     0.996290000000     0.246360000000     0.347693   
C9       C      0.996700000000     0.663740000000     0.055040000000     0.346723   
C10      C      0.996570000000     0.663770000000     0.435400000000     0.347284   
C11      C      0.996650000000     0.743570000000     0.495230000000     0.347974   
C12      C      0.996620000000     0.583750000000     0.495200000000     0.347489   
C13      C      0.996700000000     0.663820000000     0.305040000000     0.346986   
C14      C      0.996570000000     0.663840000000     0.185400000000     0.347182   
C15      C      0.996650000000     0.743650000000     0.245230000000     0.347929   
C16      C      0.996620000000     0.583830000000     0.245210000000     0.347477   
C17      C      0.663820000000     0.996460000000     0.053270000000     0.347204   
C18      C      0.663790000000     0.996590000000     0.433630000000     0.347142   
C19      C      0.583800000000     0.996460000000     0.993720000000     0.347388   
C20      C      0.743620000000     0.996610000000     0.493440000000     0.3481     
C21      C      0.664440000000     0.996450000000     0.303240000000     0.34712    
C22      C      0.663210000000     0.996580000000     0.183610000000     0.347342   
C23      C      0.583820000000     0.996280000000     0.244040000000     0.3475     
C24      C      0.743650000000     0.996810000000     0.242770000000     0.347933   
C25      C      0.996640000000     0.076370000000     0.495160000000     0.3489     
C26      C      0.996660000000     0.916810000000     0.495220000000     0.348851   
C27      C      0.076430000000     0.996610000000     0.495840000000     0.348748   
C28      C      0.916860000000     0.996590000000     0.494550000000     0.34894    
C29      C      0.996640000000     0.076510000000     0.245150000000     0.349043   
C30      C      0.996660000000     0.916890000000     0.245200000000     0.349038   
C31      C      0.076430000000     0.996840000000     0.246870000000     0.349138   
C32      C      0.916870000000     0.996820000000     0.243480000000     0.349461   
C33      C      0.995890000000     0.329430000000     0.054920000000     0.346908   
C34      C      0.997330000000     0.329430000000     0.435290000000     0.347282   
C35      C      0.996610000000     0.409420000000     0.495110000000     0.347513   
C36      C      0.996610000000     0.249610000000     0.495110000000     0.348106   
C37      C      0.995890000000     0.329500000000     0.185290000000     0.347291   
C38      C      0.997330000000     0.329480000000     0.304920000000     0.347205   
C39      C      0.996610000000     0.409500000000     0.245120000000     0.347717   
C40      C      0.996610000000     0.249690000000     0.245090000000     0.348081   
C41      C      0.961140000000     0.330000000000     0.385810000000    -0.00525939 
C42      C      0.997530000000     0.329420000000     0.401930000000    -0.0829401  
C43      C      0.033960000000     0.328850000000     0.385840000000    -0.00354598 
C44      C      0.033960000000     0.328870000000     0.354370000000    -0.00349917 
C45      C      0.997530000000     0.329450000000     0.338270000000    -0.0830386  
C46      C      0.961140000000     0.330010000000     0.354390000000    -0.0052098  
C47      C      0.959260000000     0.328860000000     0.104370000000    -0.00497168 
C48      C      0.995680000000     0.329430000000     0.088270000000    -0.0825854  
C49      C      0.032080000000     0.330010000000     0.104390000000    -0.0037718  
C50      C      0.032080000000     0.330040000000     0.135810000000    -0.00365784 
C51      C      0.995680000000     0.329470000000     0.151930000000    -0.0829093  
C52      C      0.959250000000     0.328880000000     0.135840000000    -0.00492878 
C53      C      0.022020000000     0.142050000000     0.225550000000    -0.00139932 
C54      C      0.996630000000     0.120760000000     0.245130000000    -0.0837922  
C55      C      0.971220000000     0.142060000000     0.264690000000    -0.00300341 
C56      C      0.970690000000     0.184120000000     0.264290000000    -0.00357854 
C57      C      0.996610000000     0.205420000000     0.245100000000    -0.0832909  
C58      C      0.022530000000     0.184110000000     0.225930000000    -0.0020183  
C59      C      0.022620000000     0.141970000000     0.514270000000    -0.00214735 
C60      C      0.996630000000     0.120650000000     0.495150000000    -0.083669   
C61      C      0.970630000000     0.141940000000     0.976010000000    -0.00398357 
C62      C      0.970130000000     0.184000000000     0.976390000000    -0.00292016 
C63      C      0.996620000000     0.205330000000     0.495120000000    -0.0836573  
C64      C      0.023110000000     0.184030000000     0.513870000000    -0.00190887 
C65      C      0.809120000000     0.023740000000     0.261220000000    -0.00225571 
C66      C      0.787930000000     0.997050000000     0.242580000000    -0.0834     
C67      C      0.809370000000     0.970600000000     0.223870000000    -0.00363584 
C68      C      0.851460000000     0.971200000000     0.223550000000    -0.00337374 
C69      C      0.872610000000     0.997250000000     0.242720000000    -0.0841595  
C70      C      0.851160000000     0.023340000000     0.261680000000    -0.00145514 
C71      C      0.664210000000     0.960140000000     0.384180000000    -0.005184   
C72      C      0.664010000000     0.996580000000     0.400270000000    -0.0829894  
C73      C      0.664090000000     0.032960000000     0.384140000000    -0.00371462 
C74      C      0.664300000000     0.032900000000     0.352690000000    -0.00370623 
C75      C      0.664470000000     0.996460000000     0.336600000000    -0.0830056  
C76      C      0.664450000000     0.960080000000     0.352730000000    -0.00515257 
C77      C      0.663610000000     0.960080000000     0.102740000000    -0.00500196 
C78      C      0.663650000000     0.996460000000     0.086610000000    -0.0827209  
C79      C      0.663460000000     0.032910000000     0.102700000000    -0.0036061  
C80      C      0.663260000000     0.032960000000     0.134140000000    -0.00342056 
C81      C      0.663220000000     0.996580000000     0.150260000000    -0.0829654  
C82      C      0.663380000000     0.960130000000     0.134180000000    -0.00502847 
C83      C      0.809430000000     0.969950000000     0.475210000000    -0.00365398 
C84      C      0.787910000000     0.996670000000     0.493630000000    -0.0836642  
C85      C      0.809010000000     0.023380000000     0.012320000000     0.000592274
C86      C      0.851060000000     0.022880000000     0.012990000000    -0.000249601
C87      C      0.872590000000     0.996640000000     0.494200000000    -0.0841166  
C88      C      0.851500000000     0.970430000000     0.475100000000    -0.00372523 
C89      C      0.960200000000     0.475640000000     0.244890000000    -0.00488705 
C90      C      0.996610000000     0.454100000000     0.245140000000    -0.0829104  
C91      C      0.033030000000     0.475640000000     0.245410000000    -0.00341997 
C92      C      0.033030000000     0.517690000000     0.245440000000    -0.00348682 
C93      C      0.996620000000     0.539230000000     0.245190000000    -0.0827818  
C94      C      0.960200000000     0.517690000000     0.244910000000    -0.00497871 
C95      C      0.022870000000     0.851290000000     0.226260000000    -0.00205663 
C96      C      0.996660000000     0.872610000000     0.245210000000    -0.0840356  
C97      C      0.970450000000     0.851310000000     0.264180000000    -0.00372882 
C98      C      0.969960000000     0.809250000000     0.263790000000    -0.00355363 
C99      C      0.996660000000     0.787930000000     0.245230000000    -0.0836254  
C100     C      0.023360000000     0.809240000000     0.226650000000    -0.00207274 
C101     C      0.960200000000     0.517620000000     0.495080000000    -0.00492242 
C102     C      0.996610000000     0.539150000000     0.495180000000    -0.082866   
C103     C      0.033030000000     0.517610000000     0.995250000000    -0.003649   
C104     C      0.033030000000     0.475560000000     0.995210000000    -0.00368703 
C105     C      0.996610000000     0.454030000000     0.495120000000    -0.0827609  
C106     C      0.960190000000     0.475560000000     0.495060000000    -0.00504649 
C107     C      0.960190000000     0.663830000000     0.385920000000    -0.00504513 
C108     C      0.996580000000     0.663810000000     0.402050000000    -0.0831362  
C109     C      0.033020000000     0.663810000000     0.385960000000    -0.00357657 
C110     C      0.033080000000     0.663840000000     0.354520000000    -0.00372199 
C111     C      0.996690000000     0.663830000000     0.338390000000    -0.0829331  
C112     C      0.960240000000     0.663830000000     0.354480000000    -0.00525262 
C113     C      0.960250000000     0.663810000000     0.104480000000    -0.00516659 
C114     C      0.996690000000     0.663780000000     0.088390000000    -0.0825162  
C115     C      0.033080000000     0.663800000000     0.104520000000    -0.00365466 
C116     C      0.033030000000     0.663810000000     0.135960000000    -0.00351058 
C117     C      0.996580000000     0.663840000000     0.152050000000    -0.0829965  
C118     C      0.960190000000     0.663850000000     0.135920000000    -0.00497314 
C119     C      0.969820000000     0.809170000000     0.013690000000    -0.000927951
C120     C      0.996660000000     0.787850000000     0.495230000000    -0.0836891  
C121     C      0.023500000000     0.809160000000     0.476770000000    -0.00208324 
C122     C      0.023010000000     0.851220000000     0.476380000000    -0.00215822 
C123     C      0.996660000000     0.872530000000     0.495230000000    -0.0840071  
C124     C      0.970310000000     0.851230000000     0.014080000000    -0.00193027 
C125     C      0.475620000000     0.959800000000     0.245500000000    -0.0049671  
C126     C      0.454090000000     0.996220000000     0.245820000000    -0.0827887  
C127     C      0.475630000000     0.032630000000     0.245510000000    -0.00348852 
C128     C      0.517670000000     0.032620000000     0.244900000000    -0.00345018 
C129     C      0.539210000000     0.996210000000     0.244590000000    -0.082744   
C130     C      0.517680000000     0.959800000000     0.244910000000    -0.00496511 
C131     C      0.184180000000     0.023750000000     0.229130000000    -0.00214418 
C132     C      0.205370000000     0.997080000000     0.247800000000    -0.0834616  
C133     C      0.183920000000     0.970650000000     0.266520000000    -0.00349591 
C134     C      0.141830000000     0.971240000000     0.266830000000    -0.00346752 
C135     C      0.120690000000     0.997270000000     0.247640000000    -0.0837635  
C136     C      0.142150000000     0.023340000000     0.228670000000    -0.00147196 
C137     C      0.475620000000     0.960030000000     0.995610000000    -0.00514836 
C138     C      0.454100000000     0.996450000000     0.996040000000    -0.0830125  
C139     C      0.475630000000     0.032860000000     0.495620000000    -0.00350988 
C140     C      0.517670000000     0.032850000000     0.494780000000    -0.00346461 
C141     C      0.539200000000     0.996440000000     0.994350000000    -0.0830569  
C142     C      0.517670000000     0.960030000000     0.994790000000    -0.00510622 
C143     C      0.330030000000     0.032980000000     0.356260000000    -0.00355548 
C144     C      0.330070000000     0.996600000000     0.340130000000    -0.0830097  
C145     C      0.329900000000     0.960150000000     0.356220000000    -0.00514853 
C146     C      0.329680000000     0.960100000000     0.387660000000    -0.00506195 
C147     C      0.329640000000     0.996490000000     0.403780000000    -0.0830757  
C148     C      0.329830000000     0.032930000000     0.387700000000    -0.00359669 
C149     C      0.329090000000     0.960160000000     0.106210000000    -0.00517047 
C150     C      0.329290000000     0.996600000000     0.090120000000    -0.0825212  
C151     C      0.329220000000     0.032980000000     0.106260000000    -0.00371026 
C152     C      0.329010000000     0.032920000000     0.137700000000    -0.00354228 
C153     C      0.328850000000     0.996480000000     0.153790000000    -0.0829567  
C154     C      0.328860000000     0.960100000000     0.137660000000    -0.00501638 
C155     C      0.184280000000     0.023400000000     0.478060000000    -0.00184455 
C156     C      0.205390000000     0.996700000000     0.496760000000    -0.0837722  
C157     C      0.183860000000     0.969990000000     0.015190000000    -0.000812507
C158     C      0.141800000000     0.970470000000     0.015300000000    -0.0020554  
C159     C      0.120710000000     0.996660000000     0.496190000000    -0.0836949  
C160     C      0.142240000000     0.022890000000     0.477380000000    -0.00223205 
C161     C      0.329470000000     0.996480000000     0.937130000000     0.347321   
C162     C      0.329500000000     0.996610000000     0.556760000000     0.347348   
C163     C      0.249670000000     0.996640000000     0.996960000000     0.348552   
C164     C      0.409500000000     0.996470000000     0.496670000000     0.347507   
C165     C      0.330080000000     0.996610000000     0.806780000000     0.347417   
C166     C      0.328870000000     0.996470000000     0.687150000000     0.34709    
C167     C      0.249650000000     0.996840000000     0.747610000000     0.348141   
C168     C      0.409480000000     0.996290000000     0.746360000000     0.347688   
C169     C      0.996700000000     0.663740000000     0.555040000000     0.347037   
C170     C      0.996570000000     0.663770000000     0.935400000000     0.34725    
C171     C      0.996650000000     0.743570000000     0.995230000000     0.348405   
C172     C      0.996620000000     0.583750000000     0.995200000000     0.34726    
C173     C      0.996700000000     0.663820000000     0.805030000000     0.34719    
C174     C      0.996570000000     0.663840000000     0.685400000000     0.347066   
C175     C      0.996650000000     0.743650000000     0.745230000000     0.347922   
C176     C      0.996620000000     0.583830000000     0.745210000000     0.347468   
C177     C      0.663820000000     0.996460000000     0.553260000000     0.347634   
C178     C      0.663790000000     0.996590000000     0.933630000000     0.347027   
C179     C      0.583800000000     0.996460000000     0.493720000000     0.347609   
C180     C      0.743620000000     0.996610000000     0.993440000000     0.348553   
C181     C      0.664440000000     0.996450000000     0.803240000000     0.34717    
C182     C      0.663210000000     0.996580000000     0.683610000000     0.347329   
C183     C      0.583820000000     0.996280000000     0.744040000000     0.347487   
C184     C      0.743650000000     0.996810000000     0.742770000000     0.347939   
C185     C      0.996640000000     0.076370000000     0.995160000000     0.346593   
C186     C      0.996660000000     0.916810000000     0.995220000000     0.346553   
C187     C      0.076430000000     0.996610000000     0.995840000000     0.346198   
C188     C      0.916860000000     0.996590000000     0.994550000000     0.346638   
C189     C      0.996640000000     0.076510000000     0.745150000000     0.349056   
C190     C      0.996660000000     0.916890000000     0.745200000000     0.349039   
C191     C      0.076430000000     0.996840000000     0.746870000000     0.34913    
C192     C      0.916870000000     0.996820000000     0.743480000000     0.349205   
C193     C      0.995890000000     0.329430000000     0.554920000000     0.347208   
C194     C      0.997330000000     0.329430000000     0.935290000000     0.3471     
C195     C      0.996610000000     0.409420000000     0.995110000000     0.347292   
C196     C      0.996610000000     0.249610000000     0.995100000000     0.348555   
C197     C      0.995890000000     0.329500000000     0.685290000000     0.347279   
C198     C      0.997330000000     0.329480000000     0.804920000000     0.347185   
C199     C      0.996610000000     0.409500000000     0.745110000000     0.347708   
C200     C      0.996610000000     0.249690000000     0.745100000000     0.348068   
C201     C      0.961140000000     0.330000000000     0.885810000000    -0.00529439 
C202     C      0.997530000000     0.329420000000     0.901930000000    -0.0829156  
C203     C      0.033960000000     0.328850000000     0.885840000000    -0.00357897 
C204     C      0.033960000000     0.328870000000     0.854370000000    -0.00351184 
C205     C      0.997530000000     0.329450000000     0.838270000000    -0.0830491  
C206     C      0.961140000000     0.330010000000     0.854390000000    -0.00521699 
C207     C      0.959260000000     0.328860000000     0.604370000000    -0.00494197 
C208     C      0.995680000000     0.329430000000     0.588270000000    -0.0830853  
C209     C      0.032080000000     0.330010000000     0.604390000000    -0.00373178 
C210     C      0.032080000000     0.330040000000     0.635810000000    -0.00382689 
C211     C      0.995680000000     0.329470000000     0.651930000000    -0.082932   
C212     C      0.959250000000     0.328880000000     0.635840000000    -0.00510437 
C213     C      0.022020000000     0.142050000000     0.725560000000    -0.00135712 
C214     C      0.996630000000     0.120760000000     0.745130000000    -0.0838433  
C215     C      0.971220000000     0.142060000000     0.764690000000    -0.00299533 
C216     C      0.970690000000     0.184120000000     0.764290000000    -0.00360986 
C217     C      0.996610000000     0.205420000000     0.745100000000    -0.0832999  
C218     C      0.022530000000     0.184110000000     0.725930000000    -0.00206683 
C219     C      0.022620000000     0.141970000000     0.014270000000    -0.000321823
C220     C      0.996630000000     0.120650000000     0.995150000000    -0.085317   
C221     C      0.970630000000     0.141940000000     0.476020000000    -0.00372478 
C222     C      0.970130000000     0.184000000000     0.476390000000    -0.00339806 
C223     C      0.996620000000     0.205330000000     0.995120000000    -0.0863887  
C224     C      0.023110000000     0.184030000000     0.013870000000     0.000732667
C225     C      0.809120000000     0.023740000000     0.761220000000    -0.00223578 
C226     C      0.787930000000     0.997050000000     0.742580000000    -0.0834485  
C227     C      0.809370000000     0.970600000000     0.723870000000    -0.00362519 
C228     C      0.851460000000     0.971200000000     0.723550000000    -0.00344952 
C229     C      0.872610000000     0.997250000000     0.742720000000    -0.0840646  
C230     C      0.851160000000     0.023340000000     0.761680000000    -0.00151907 
C231     C      0.664210000000     0.960140000000     0.884180000000    -0.00521174 
C232     C      0.664010000000     0.996580000000     0.900270000000    -0.0829752  
C233     C      0.664090000000     0.032960000000     0.884140000000    -0.00374584 
C234     C      0.664300000000     0.032900000000     0.852690000000    -0.00371302 
C235     C      0.664470000000     0.996460000000     0.836600000000    -0.0830292  
C236     C      0.664450000000     0.960080000000     0.852730000000    -0.0051541  
C237     C      0.663610000000     0.960080000000     0.602740000000    -0.00500674 
C238     C      0.663650000000     0.996460000000     0.586610000000    -0.083146   
C239     C      0.663460000000     0.032910000000     0.602700000000    -0.00360078 
C240     C      0.663260000000     0.032960000000     0.634140000000    -0.00357741 
C241     C      0.663220000000     0.996580000000     0.650260000000    -0.0829982  
C242     C      0.663380000000     0.960130000000     0.634180000000    -0.00518788 
C243     C      0.809430000000     0.969950000000     0.975210000000    -0.00313567 
C244     C      0.787910000000     0.996670000000     0.993630000000    -0.0864077  
C245     C      0.809010000000     0.023380000000     0.512320000000    -0.00204732 
C246     C      0.851060000000     0.022880000000     0.512990000000    -0.00208482 
C247     C      0.872590000000     0.996640000000     0.994200000000    -0.0857813  
C248     C      0.851500000000     0.970430000000     0.975100000000    -0.0039574  
C249     C      0.960200000000     0.475640000000     0.744880000000    -0.0049208  
C250     C      0.996610000000     0.454100000000     0.745130000000    -0.0829547  
C251     C      0.033030000000     0.475640000000     0.745410000000    -0.00345212 
C252     C      0.033030000000     0.517690000000     0.745440000000    -0.00351912 
C253     C      0.996620000000     0.539230000000     0.745190000000    -0.0828262  
C254     C      0.960200000000     0.517690000000     0.744910000000    -0.00501185 
C255     C      0.022870000000     0.851290000000     0.726260000000    -0.00208503 
C256     C      0.996660000000     0.872610000000     0.745210000000    -0.0840514  
C257     C      0.970450000000     0.851310000000     0.764180000000    -0.0037322  
C258     C      0.969960000000     0.809250000000     0.763790000000    -0.00358342 
C259     C      0.996660000000     0.787930000000     0.745220000000    -0.0836517  
C260     C      0.023360000000     0.809240000000     0.726650000000    -0.00206882 
C261     C      0.960200000000     0.517620000000     0.995080000000    -0.00507963 
C262     C      0.996610000000     0.539150000000     0.995180000000    -0.08305    
C263     C      0.033030000000     0.517610000000     0.495250000000    -0.00348937 
C264     C      0.033030000000     0.475560000000     0.495210000000    -0.00352947 
C265     C      0.996610000000     0.454030000000     0.995130000000    -0.0829485  
C266     C      0.960190000000     0.475560000000     0.995060000000    -0.00520069 
C267     C      0.960190000000     0.663830000000     0.885920000000    -0.00503133 
C268     C      0.996580000000     0.663810000000     0.902050000000    -0.0831574  
C269     C      0.033020000000     0.663810000000     0.885960000000    -0.0035791  
C270     C      0.033080000000     0.663840000000     0.854520000000    -0.00375993 
C271     C      0.996690000000     0.663830000000     0.838390000000    -0.08288    
C272     C      0.960240000000     0.663830000000     0.854480000000    -0.00530107 
C273     C      0.960250000000     0.663810000000     0.604480000000    -0.00512089 
C274     C      0.996690000000     0.663780000000     0.588390000000    -0.0830257  
C275     C      0.033080000000     0.663800000000     0.604520000000    -0.00360981 
C276     C      0.033030000000     0.663810000000     0.635960000000    -0.00370197 
C277     C      0.996580000000     0.663840000000     0.652050000000    -0.0829913  
C278     C      0.960190000000     0.663850000000     0.635920000000    -0.00515981 
C279     C      0.969820000000     0.809170000000     0.513690000000    -0.00357941 
C280     C      0.996660000000     0.787850000000     0.995240000000    -0.0864155  
C281     C      0.023500000000     0.809160000000     0.976770000000    -0.00162708 
C282     C      0.023010000000     0.851220000000     0.976380000000    -0.00236512 
C283     C      0.996660000000     0.872530000000     0.995230000000    -0.0856862  
C284     C      0.970310000000     0.851230000000     0.514080000000    -0.00377209 
C285     C      0.475620000000     0.959800000000     0.745500000000    -0.00499941 
C286     C      0.454090000000     0.996220000000     0.745820000000    -0.0828346  
C287     C      0.475630000000     0.032630000000     0.745510000000    -0.0035199  
C288     C      0.517670000000     0.032620000000     0.744900000000    -0.00348329 
C289     C      0.539210000000     0.996210000000     0.744590000000    -0.0827873  
C290     C      0.517680000000     0.959800000000     0.744910000000    -0.00499967 
C291     C      0.184180000000     0.023750000000     0.729130000000    -0.00213165 
C292     C      0.205370000000     0.997080000000     0.747800000000    -0.0835406  
C293     C      0.183920000000     0.970650000000     0.766510000000    -0.00340067 
C294     C      0.141830000000     0.971240000000     0.766830000000    -0.00353653 
C295     C      0.120690000000     0.997270000000     0.747640000000    -0.0837511  
C296     C      0.142150000000     0.023340000000     0.728670000000    -0.00151486 
C297     C      0.475620000000     0.960030000000     0.495610000000    -0.00499247 
C298     C      0.454100000000     0.996450000000     0.496040000000    -0.0828261  
C299     C      0.475630000000     0.032860000000     0.995620000000    -0.00366842 
C300     C      0.517670000000     0.032850000000     0.994780000000    -0.00362355 
C301     C      0.539200000000     0.996440000000     0.494350000000    -0.0828724  
C302     C      0.517670000000     0.960030000000     0.494780000000    -0.00495041 
C303     C      0.330030000000     0.032980000000     0.856260000000    -0.00356515 
C304     C      0.330070000000     0.996600000000     0.840130000000    -0.0830225  
C305     C      0.329900000000     0.960150000000     0.856210000000    -0.00516555 
C306     C      0.329680000000     0.960100000000     0.887660000000    -0.00508838 
C307     C      0.329640000000     0.996490000000     0.903780000000    -0.0830664  
C308     C      0.329830000000     0.032930000000     0.887700000000    -0.00363187 
C309     C      0.329090000000     0.960160000000     0.606210000000    -0.00512532 
C310     C      0.329290000000     0.996600000000     0.590120000000    -0.0830347  
C311     C      0.329220000000     0.032980000000     0.606260000000    -0.00366587 
C312     C      0.329010000000     0.032920000000     0.637700000000    -0.00372196 
C313     C      0.328850000000     0.996480000000     0.653790000000    -0.0829659  
C314     C      0.328860000000     0.960100000000     0.637660000000    -0.00519632 
C315     C      0.184280000000     0.023400000000     0.978060000000    -0.00137717 
C316     C      0.205390000000     0.996700000000     0.996760000000    -0.0865135  
C317     C      0.183860000000     0.969990000000     0.515190000000    -0.0034799  
C318     C      0.141800000000     0.970470000000     0.515300000000    -0.00381112 
C319     C      0.120710000000     0.996660000000     0.996180000000    -0.0852813  
C320     C      0.142240000000     0.022890000000     0.977390000000    -0.00242375 
Cu1      Cu     0.329460000000     0.959290000000     0.997060000000     0.836515   
Cu2      Cu     0.329550000000     0.033810000000     0.496820000000     0.841501   
Cu3      Cu     0.329620000000     0.033800000000     0.246850000000     0.84189    
Cu4      Cu     0.329360000000     0.959280000000     0.247100000000     0.837971   
Cu5      Cu     0.033900000000     0.663730000000     0.495100000000     0.841379   
Cu6      Cu     0.959370000000     0.663740000000     0.995340000000     0.836453   
Cu7      Cu     0.033900000000     0.663810000000     0.245100000000     0.841316   
Cu8      Cu     0.959370000000     0.663820000000     0.245340000000     0.838544   
Cu9      Cu     0.663750000000     0.033790000000     0.493580000000     0.841585   
Cu10     Cu     0.663830000000     0.959260000000     0.993340000000     0.836588   
Cu11     Cu     0.663690000000     0.033780000000     0.243540000000     0.842071   
Cu12     Cu     0.663940000000     0.959260000000     0.243300000000     0.837796   
Cu13     Cu     0.996250000000     0.996610000000     0.023060000000     0.839142   
Cu14     Cu     0.997040000000     0.996580000000     0.467320000000     0.837562   
Cu15     Cu     0.995370000000     0.996720000000     0.273070000000     0.83841    
Cu16     Cu     0.997930000000     0.996690000000     0.217280000000     0.83831    
Cu17     Cu     0.033870000000     0.329440000000     0.495410000000     0.84134    
Cu18     Cu     0.959350000000     0.329430000000     0.994800000000     0.836585   
Cu19     Cu     0.959340000000     0.329510000000     0.245410000000     0.838465   
Cu20     Cu     0.033870000000     0.329510000000     0.244800000000     0.841513   
Cu21     Cu     0.329460000000     0.959290000000     0.497060000000     0.838446   
Cu22     Cu     0.329550000000     0.033810000000     0.996810000000     0.839609   
Cu23     Cu     0.329620000000     0.033800000000     0.746850000000     0.841819   
Cu24     Cu     0.329360000000     0.959280000000     0.747100000000     0.837902   
Cu25     Cu     0.033900000000     0.663730000000     0.995100000000     0.839506   
Cu26     Cu     0.959370000000     0.663740000000     0.495340000000     0.838512   
Cu27     Cu     0.033900000000     0.663810000000     0.745100000000     0.841251   
Cu28     Cu     0.959370000000     0.663820000000     0.745340000000     0.838471   
Cu29     Cu     0.663750000000     0.033790000000     0.993580000000     0.839653   
Cu30     Cu     0.663830000000     0.959260000000     0.493340000000     0.838474   
Cu31     Cu     0.663690000000     0.033780000000     0.743540000000     0.842018   
Cu32     Cu     0.663940000000     0.959260000000     0.743290000000     0.837595   
Cu33     Cu     0.996250000000     0.996610000000     0.523060000000     0.837618   
Cu34     Cu     0.997040000000     0.996580000000     0.967320000000     0.835167   
Cu35     Cu     0.995370000000     0.996720000000     0.773070000000     0.838414   
Cu36     Cu     0.997930000000     0.996690000000     0.717280000000     0.8382     
Cu37     Cu     0.033870000000     0.329440000000     0.995410000000     0.839384   
Cu38     Cu     0.959350000000     0.329430000000     0.494800000000     0.838335   
Cu39     Cu     0.959340000000     0.329510000000     0.745410000000     0.838389   
Cu40     Cu     0.033870000000     0.329510000000     0.744790000000     0.841443   
H1       H      0.932500000000     0.330440000000     0.397430000000     0.044569   
H2       H      0.062560000000     0.328400000000     0.397520000000     0.0448042  
H3       H      0.062560000000     0.328420000000     0.342690000000     0.0448159  
H4       H      0.932500000000     0.330470000000     0.342770000000     0.0445488  
H5       H      0.930660000000     0.328400000000     0.092690000000     0.0451665  
H6       H      0.060720000000     0.330460000000     0.092770000000     0.0448155  
H7       H      0.060720000000     0.330490000000     0.147430000000     0.0446006  
H8       H      0.930660000000     0.328440000000     0.147520000000     0.0449964  
H9       H      0.041960000000     0.126150000000     0.210370000000     0.0410232  
H10      H      0.951290000000     0.126170000000     0.279880000000     0.0407892  
H11      H      0.950560000000     0.200010000000     0.279340000000     0.0414704  
H12      H      0.042660000000     0.199990000000     0.210870000000     0.0416029  
H13      H      0.043020000000     0.126100000000     0.529120000000     0.0423009  
H14      H      0.950230000000     0.126050000000     0.961170000000     0.0420005  
H15      H      0.949550000000     0.199870000000     0.961670000000     0.0414     
H16      H      0.043680000000     0.199920000000     0.528580000000     0.0417717  
H17      H      0.793160000000     0.044310000000     0.275890000000     0.0417664  
H18      H      0.793570000000     0.949890000000     0.209220000000     0.0417932  
H19      H      0.867480000000     0.950700000000     0.208860000000     0.0416709  
H20      H      0.866930000000     0.043760000000     0.276580000000     0.0409978  
H21      H      0.664190000000     0.931530000000     0.395850000000     0.0446019  
H22      H      0.663960000000     0.061590000000     0.395770000000     0.0445932  
H23      H      0.664310000000     0.061510000000     0.341020000000     0.0444798  
H24      H      0.664560000000     0.931440000000     0.341100000000     0.0446904  
H25      H      0.663730000000     0.931450000000     0.091100000000     0.0450443  
H26      H      0.663480000000     0.061510000000     0.091030000000     0.0449583  
H27      H      0.663150000000     0.061590000000     0.145770000000     0.0448641  
H28      H      0.663380000000     0.931530000000     0.145850000000     0.0447828  
H29      H      0.793710000000     0.949190000000     0.460550000000     0.0416999  
H30      H      0.792970000000     0.044130000000     0.026800000000     0.0420435  
H31      H      0.866770000000     0.043450000000     0.027810000000     0.0424573  
H32      H      0.867550000000     0.949830000000     0.460510000000     0.0419103  
H33      H      0.931580000000     0.460060000000     0.244670000000     0.0447278  
H34      H      0.061650000000     0.460050000000     0.245610000000     0.044665   
H35      H      0.061650000000     0.533260000000     0.245660000000     0.0446871  
H36      H      0.931580000000     0.533280000000     0.244710000000     0.0447481  
H37      H      0.043440000000     0.867170000000     0.211540000000     0.0422274  
H38      H      0.949880000000     0.867190000000     0.278890000000     0.0419921  
H39      H      0.949210000000     0.793380000000     0.278380000000     0.0417483  
H40      H      0.044100000000     0.793350000000     0.212070000000     0.041941   
H41      H      0.931580000000     0.533200000000     0.495030000000     0.0446681  
H42      H      0.061650000000     0.533180000000     0.995320000000     0.0443491  
H43      H      0.061650000000     0.459980000000     0.995270000000     0.0443559  
H44      H      0.931570000000     0.459990000000     0.494990000000     0.044701   
H45      H      0.931550000000     0.663830000000     0.397550000000     0.0446686  
H46      H      0.061630000000     0.663810000000     0.397630000000     0.0445378  
H47      H      0.061710000000     0.663840000000     0.342880000000     0.0446841  
H48      H      0.931640000000     0.663840000000     0.342810000000     0.0446534  
H49      H      0.931640000000     0.663810000000     0.092810000000     0.0449591  
H50      H      0.061720000000     0.663780000000     0.092880000000     0.0449907  
H51      H      0.061640000000     0.663820000000     0.147630000000     0.0446741  
H52      H      0.931560000000     0.663860000000     0.147560000000     0.044831   
H53      H      0.948970000000     0.793300000000     0.028200000000     0.0418217  
H54      H      0.044340000000     0.793280000000     0.462270000000     0.0418969  
H55      H      0.043700000000     0.867090000000     0.461750000000     0.042238   
H56      H      0.949630000000     0.867110000000     0.028710000000     0.0421522  
H57      H      0.460030000000     0.931190000000     0.245720000000     0.0446986  
H58      H      0.460070000000     0.061250000000     0.245730000000     0.0447255  
H59      H      0.533240000000     0.061250000000     0.244690000000     0.0447085  
H60      H      0.533270000000     0.931190000000     0.244690000000     0.0447098  
H61      H      0.200150000000     0.044300000000     0.214450000000     0.0418578  
H62      H      0.199720000000     0.949960000000     0.281180000000     0.0417826  
H63      H      0.125810000000     0.950760000000     0.281530000000     0.04191    
H64      H      0.126380000000     0.043750000000     0.213750000000     0.0412581  
H65      H      0.460040000000     0.931410000000     0.995890000000     0.0443986  
H66      H      0.460060000000     0.061480000000     0.495900000000     0.0446318  
H67      H      0.533240000000     0.061470000000     0.494500000000     0.0446216  
H68      H      0.533240000000     0.931410000000     0.994500000000     0.044393   
H69      H      0.330140000000     0.061610000000     0.344620000000     0.0447778  
H70      H      0.329900000000     0.931550000000     0.344550000000     0.044677   
H71      H      0.329550000000     0.931470000000     0.399290000000     0.0447246  
H72      H      0.329810000000     0.061530000000     0.399370000000     0.0446426  
H73      H      0.329110000000     0.931550000000     0.094540000000     0.0449577  
H74      H      0.329350000000     0.061610000000     0.094620000000     0.0449575  
H75      H      0.329010000000     0.061530000000     0.149370000000     0.0445998  
H76      H      0.328750000000     0.931470000000     0.149290000000     0.0448244  
H77      H      0.200330000000     0.044140000000     0.463570000000     0.0420317  
H78      H      0.199580000000     0.949250000000     0.029870000000     0.0417668  
H79      H      0.125740000000     0.949880000000     0.029890000000     0.0423214  
H80      H      0.126520000000     0.043450000000     0.462560000000     0.0426399  
H81      H      0.932500000000     0.330440000000     0.897430000000     0.0444918  
H82      H      0.062560000000     0.328400000000     0.897520000000     0.0447246  
H83      H      0.062560000000     0.328420000000     0.842690000000     0.0447655  
H84      H      0.932500000000     0.330470000000     0.842770000000     0.0445016  
H85      H      0.930660000000     0.328400000000     0.592690000000     0.0448079  
H86      H      0.060720000000     0.330460000000     0.592770000000     0.0444699  
H87      H      0.060720000000     0.330490000000     0.647430000000     0.044486   
H88      H      0.930660000000     0.328440000000     0.647520000000     0.0448766  
H89      H      0.041960000000     0.126150000000     0.710370000000     0.0409521  
H90      H      0.951290000000     0.126170000000     0.779880000000     0.0407671  
H91      H      0.950560000000     0.200010000000     0.779340000000     0.0414505  
H92      H      0.042660000000     0.199990000000     0.710870000000     0.0415499  
H93      H      0.043020000000     0.126100000000     0.029120000000     0.0424122  
H94      H      0.950230000000     0.126050000000     0.461170000000     0.042103   
H95      H      0.949550000000     0.199870000000     0.461660000000     0.0416744  
H96      H      0.043680000000     0.199920000000     0.028580000000     0.0418139  
H97      H      0.793160000000     0.044310000000     0.775890000000     0.0417311  
H98      H      0.793570000000     0.949890000000     0.709220000000     0.0417191  
H99      H      0.867480000000     0.950700000000     0.708860000000     0.0416332  
H100     H      0.866930000000     0.043760000000     0.776580000000     0.0409961  
H101     H      0.664190000000     0.931530000000     0.895850000000     0.0445309  
H102     H      0.663960000000     0.061590000000     0.895770000000     0.0445133  
H103     H      0.664310000000     0.061510000000     0.841020000000     0.0444287  
H104     H      0.664560000000     0.931440000000     0.841100000000     0.0446476  
H105     H      0.663730000000     0.931450000000     0.591100000000     0.0446941  
H106     H      0.663480000000     0.061510000000     0.591030000000     0.0446215  
H107     H      0.663150000000     0.061590000000     0.645770000000     0.0447431  
H108     H      0.663380000000     0.931530000000     0.645850000000     0.0446602  
H109     H      0.793710000000     0.949190000000     0.960540000000     0.0414066  
H110     H      0.792970000000     0.044130000000     0.526800000000     0.0420017  
H111     H      0.866770000000     0.043450000000     0.527810000000     0.042345   
H112     H      0.867550000000     0.949830000000     0.960510000000     0.0417968  
H113     H      0.931580000000     0.460060000000     0.744670000000     0.0446553  
H114     H      0.061650000000     0.460050000000     0.745610000000     0.0445933  
H115     H      0.061650000000     0.533260000000     0.745650000000     0.0446157  
H116     H      0.931580000000     0.533280000000     0.744710000000     0.0446757  
H117     H      0.043440000000     0.867170000000     0.711540000000     0.0421763  
H118     H      0.949880000000     0.867190000000     0.778890000000     0.0419735  
H119     H      0.949210000000     0.793380000000     0.778380000000     0.0417316  
H120     H      0.044100000000     0.793350000000     0.712070000000     0.0418706  
H121     H      0.931580000000     0.533200000000     0.995030000000     0.0443969  
H122     H      0.061650000000     0.533180000000     0.495320000000     0.0446191  
H123     H      0.061650000000     0.459980000000     0.495270000000     0.0446285  
H124     H      0.931570000000     0.459990000000     0.994990000000     0.0444307  
H125     H      0.931550000000     0.663830000000     0.897560000000     0.0445872  
H126     H      0.061630000000     0.663810000000     0.897630000000     0.0444606  
H127     H      0.061710000000     0.663840000000     0.842880000000     0.0446532  
H128     H      0.931640000000     0.663840000000     0.842810000000     0.0446174  
H129     H      0.931640000000     0.663810000000     0.592810000000     0.0446114  
H130     H      0.061720000000     0.663780000000     0.592880000000     0.0446297  
H131     H      0.061640000000     0.663820000000     0.647630000000     0.0445541  
H132     H      0.931560000000     0.663860000000     0.647560000000     0.0447193  
H133     H      0.948970000000     0.793300000000     0.528200000000     0.0417833  
H134     H      0.044340000000     0.793280000000     0.962270000000     0.0416305  
H135     H      0.043700000000     0.867090000000     0.961750000000     0.0421179  
H136     H      0.949630000000     0.867110000000     0.528710000000     0.0420424  
H137     H      0.460030000000     0.931190000000     0.745720000000     0.0446263  
H138     H      0.460070000000     0.061250000000     0.745730000000     0.0446532  
H139     H      0.533240000000     0.061250000000     0.744680000000     0.0446362  
H140     H      0.533270000000     0.931190000000     0.744690000000     0.0446376  
H141     H      0.200150000000     0.044300000000     0.714450000000     0.0417878  
H142     H      0.199720000000     0.949960000000     0.781190000000     0.0417162  
H143     H      0.125810000000     0.950760000000     0.781530000000     0.0419073  
H144     H      0.126380000000     0.043750000000     0.713750000000     0.0412149  
H145     H      0.460040000000     0.931410000000     0.495890000000     0.0446718  
H146     H      0.460060000000     0.061480000000     0.995900000000     0.0443605  
H147     H      0.533240000000     0.061470000000     0.994500000000     0.0443505  
H148     H      0.533240000000     0.931410000000     0.494500000000     0.0446617  
H149     H      0.330140000000     0.061610000000     0.844620000000     0.0447278  
H150     H      0.329900000000     0.931550000000     0.844550000000     0.0446302  
H151     H      0.329550000000     0.931470000000     0.899290000000     0.044642   
H152     H      0.329810000000     0.061530000000     0.899360000000     0.0445676  
H153     H      0.329110000000     0.931550000000     0.594540000000     0.0446119  
H154     H      0.329350000000     0.061610000000     0.594620000000     0.0445979  
H155     H      0.329010000000     0.061530000000     0.649370000000     0.0444851  
H156     H      0.328750000000     0.931470000000     0.649290000000     0.0447119  
H157     H      0.200330000000     0.044140000000     0.963570000000     0.0417542  
H158     H      0.199580000000     0.949250000000     0.529870000000     0.0417349  
H159     H      0.125740000000     0.949880000000     0.529900000000     0.0421845  
H160     H      0.126520000000     0.043450000000     0.962560000000     0.0425121  
O1       O      0.328870000000     0.962910000000     0.451390000000    -0.382326   
O2       O      0.330050000000     0.962990000000     0.042620000000    -0.381644   
O3       O      0.268470000000     0.962980000000     0.997770000000    -0.382554   
O4       O      0.390470000000     0.962880000000     0.496520000000    -0.382637   
O5       O      0.390540000000     0.030080000000     0.497100000000    -0.381794   
O6       O      0.268550000000     0.030260000000     0.996180000000    -0.381304   
O7       O      0.329040000000     0.030180000000     0.042500000000    -0.379482   
O8       O      0.330030000000     0.030100000000     0.451270000000    -0.382351   
O9       O      0.329560000000     0.030180000000     0.292530000000    -0.38125    
O10      O      0.329630000000     0.030090000000     0.201290000000    -0.382261   
O11      O      0.268620000000     0.030390000000     0.246620000000    -0.380989   
O12      O      0.390590000000     0.029930000000     0.246830000000    -0.381991   
O13      O      0.390390000000     0.962740000000     0.246240000000    -0.382494   
O14      O      0.268360000000     0.963120000000     0.248220000000    -0.381586   
O15      O      0.328320000000     0.962900000000     0.201420000000    -0.382047   
O16      O      0.330420000000     0.962980000000     0.292640000000    -0.383359   
O17      O      0.030280000000     0.664270000000     0.040770000000    -0.379412   
O18      O      0.030190000000     0.663210000000     0.449540000000    -0.382309   
O19      O      0.030290000000     0.724720000000     0.494440000000    -0.380846   
O20      O      0.030230000000     0.602740000000     0.495500000000    -0.381666   
O21      O      0.963020000000     0.602750000000     0.494910000000    -0.382757   
O22      O      0.963000000000     0.724740000000     0.496020000000    -0.381854   
O23      O      0.962990000000     0.664310000000     0.449670000000    -0.382285   
O24      O      0.963070000000     0.663190000000     0.040890000000    -0.38154    
O25      O      0.030280000000     0.664360000000     0.290770000000    -0.38111    
O26      O      0.030200000000     0.663270000000     0.199540000000    -0.382141   
O27      O      0.030290000000     0.724810000000     0.244420000000    -0.380746   
O28      O      0.030230000000     0.602820000000     0.245510000000    -0.381602   
O29      O      0.963020000000     0.602830000000     0.244910000000    -0.382711   
O30      O      0.963000000000     0.724810000000     0.246020000000    -0.38184    
O31      O      0.962990000000     0.664380000000     0.199660000000    -0.382153   
O32      O      0.963070000000     0.663270000000     0.290890000000    -0.383251   
O33      O      0.663260000000     0.030080000000     0.039130000000    -0.380686   
O34      O      0.664260000000     0.030160000000     0.447900000000    -0.381203   
O35      O      0.602760000000     0.030070000000     0.493290000000    -0.381827   
O36      O      0.724750000000     0.030230000000     0.994220000000    -0.381583   
O37      O      0.724820000000     0.962950000000     0.992630000000    -0.382394   
O38      O      0.602820000000     0.962870000000     0.493880000000    -0.382705   
O39      O      0.663240000000     0.962970000000     0.447780000000    -0.383283   
O40      O      0.664420000000     0.962890000000     0.039010000000    -0.38064    
O41      O      0.663680000000     0.030070000000     0.289100000000    -0.382356   
O42      O      0.663730000000     0.030160000000     0.197870000000    -0.381165   
O43      O      0.602720000000     0.029920000000     0.243570000000    -0.381919   
O44      O      0.724680000000     0.030370000000     0.243760000000    -0.380997   
O45      O      0.724940000000     0.963090000000     0.242160000000    -0.381557   
O46      O      0.602900000000     0.962720000000     0.244160000000    -0.382319   
O47      O      0.662860000000     0.962960000000     0.197750000000    -0.383237   
O48      O      0.664990000000     0.962880000000     0.288970000000    -0.382188   
O49      O      0.998950000000     0.057550000000     0.020280000000    -0.379153   
O50      O      0.993640000000     0.935670000000     0.020280000000    -0.380025   
O51      O      0.057230000000     0.993950000000     0.020780000000    -0.378991   
O52      O      0.935350000000     0.999270000000     0.019790000000    -0.380114   
O53      O      0.936060000000     0.993910000000     0.469610000000    -0.38205    
O54      O      0.057940000000     0.999260000000     0.470600000000    -0.381007   
O55      O      0.999670000000     0.935640000000     0.470140000000    -0.382078   
O56      O      0.994330000000     0.057520000000     0.470060000000    -0.380982   
O57      O      0.996270000000     0.057700000000     0.270330000000    -0.381043   
O58      O      0.993970000000     0.935740000000     0.270290000000    -0.382167   
O59      O      0.056610000000     0.995240000000     0.271620000000    -0.3797     
O60      O      0.934690000000     0.998280000000     0.269010000000    -0.383719   
O61      O      0.936690000000     0.995190000000     0.218740000000    -0.380844   
O62      O      0.058620000000     0.998260000000     0.221340000000    -0.382592   
O63      O      0.999340000000     0.935710000000     0.220100000000    -0.382287   
O64      O      0.997020000000     0.057670000000     0.219970000000    -0.381051   
O65      O      0.029640000000     0.330010000000     0.040930000000    -0.380803   
O66      O      0.030780000000     0.328860000000     0.449700000000    -0.380934   
O67      O      0.030210000000     0.390430000000     0.494960000000    -0.381737   
O68      O      0.030250000000     0.268450000000     0.496080000000    -0.380792   
O69      O      0.962980000000     0.268440000000     0.494120000000    -0.381948   
O70      O      0.963000000000     0.390430000000     0.495250000000    -0.38266    
O71      O      0.963580000000     0.330010000000     0.449270000000    -0.383509   
O72      O      0.962440000000     0.328860000000     0.040500000000    -0.380326   
O73      O      0.962440000000     0.328920000000     0.199700000000    -0.381945   
O74      O      0.963580000000     0.330090000000     0.290930000000    -0.383544   
O75      O      0.963010000000     0.390510000000     0.244940000000    -0.382742   
O76      O      0.962970000000     0.268520000000     0.246090000000    -0.381757   
O77      O      0.030240000000     0.268520000000     0.244100000000    -0.380752   
O78      O      0.030210000000     0.390500000000     0.245280000000    -0.381726   
O79      O      0.030780000000     0.328900000000     0.290500000000    -0.380922   
O80      O      0.029640000000     0.330100000000     0.199270000000    -0.382444   
O81      O      0.328870000000     0.962910000000     0.951390000000    -0.382108   
O82      O      0.330050000000     0.962990000000     0.542620000000    -0.383372   
O83      O      0.268470000000     0.962980000000     0.497770000000    -0.381928   
O84      O      0.390470000000     0.962880000000     0.996520000000    -0.382806   
O85      O      0.390540000000     0.030080000000     0.997110000000    -0.381975   
O86      O      0.268550000000     0.030260000000     0.496180000000    -0.380881   
O87      O      0.329040000000     0.030180000000     0.542500000000    -0.381305   
O88      O      0.330030000000     0.030100000000     0.951270000000    -0.382207   
O89      O      0.329560000000     0.030180000000     0.792530000000    -0.381264   
O90      O      0.329630000000     0.030090000000     0.701290000000    -0.382315   
O91      O      0.268620000000     0.030390000000     0.746620000000    -0.381018   
O92      O      0.390590000000     0.029930000000     0.746830000000    -0.382031   
O93      O      0.390390000000     0.962740000000     0.746250000000    -0.382538   
O94      O      0.268360000000     0.963120000000     0.748220000000    -0.381619   
O95      O      0.328320000000     0.962900000000     0.701420000000    -0.382109   
O96      O      0.330420000000     0.962980000000     0.792640000000    -0.383366   
O97      O      0.030280000000     0.664270000000     0.540770000000    -0.381129   
O98      O      0.030190000000     0.663210000000     0.949540000000    -0.382087   
O99      O      0.030290000000     0.724720000000     0.994430000000    -0.381259   
O100     O      0.030230000000     0.602740000000     0.995500000000    -0.381848   
O101     O      0.963020000000     0.602750000000     0.994910000000    -0.382913   
O102     O      0.963000000000     0.724740000000     0.996020000000    -0.382466   
O103     O      0.962990000000     0.664310000000     0.949660000000    -0.382023   
O104     O      0.963070000000     0.663190000000     0.540890000000    -0.383271   
O105     O      0.030280000000     0.664360000000     0.790780000000    -0.381203   
O106     O      0.030200000000     0.663270000000     0.699550000000    -0.382208   
O107     O      0.030290000000     0.724810000000     0.744420000000    -0.38077    
O108     O      0.030230000000     0.602820000000     0.745510000000    -0.381643   
O109     O      0.963020000000     0.602830000000     0.744910000000    -0.382753   
O110     O      0.963000000000     0.724810000000     0.746030000000    -0.381864   
O111     O      0.962990000000     0.664380000000     0.699660000000    -0.382185   
O112     O      0.963070000000     0.663270000000     0.790890000000    -0.383379   
O113     O      0.663260000000     0.030080000000     0.539130000000    -0.382488   
O114     O      0.664260000000     0.030160000000     0.947900000000    -0.380969   
O115     O      0.602760000000     0.030070000000     0.993290000000    -0.381994   
O116     O      0.724750000000     0.030230000000     0.494220000000    -0.380959   
O117     O      0.724820000000     0.962950000000     0.492630000000    -0.381979   
O118     O      0.602820000000     0.962870000000     0.993880000000    -0.382882   
O119     O      0.663240000000     0.962970000000     0.947780000000    -0.383036   
O120     O      0.664420000000     0.962890000000     0.539010000000    -0.382463   
O121     O      0.663680000000     0.030070000000     0.789100000000    -0.382389   
O122     O      0.663730000000     0.030160000000     0.697870000000    -0.381233   
O123     O      0.602720000000     0.029920000000     0.743570000000    -0.381961   
O124     O      0.724680000000     0.030370000000     0.743760000000    -0.381029   
O125     O      0.724940000000     0.963090000000     0.742160000000    -0.381576   
O126     O      0.602900000000     0.962720000000     0.744160000000    -0.382348   
O127     O      0.662860000000     0.962960000000     0.697750000000    -0.383367   
O128     O      0.664990000000     0.962880000000     0.788980000000    -0.382082   
O129     O      0.998950000000     0.057550000000     0.520280000000    -0.381101   
O130     O      0.993640000000     0.935670000000     0.520280000000    -0.381975   
O131     O      0.057230000000     0.993950000000     0.520780000000    -0.380993   
O132     O      0.935350000000     0.999270000000     0.519790000000    -0.382069   
O133     O      0.936060000000     0.993910000000     0.969610000000    -0.381552   
O134     O      0.057940000000     0.999260000000     0.970590000000    -0.380364   
O135     O      0.999670000000     0.935640000000     0.970140000000    -0.381583   
O136     O      0.994330000000     0.057520000000     0.970060000000    -0.380487   
O137     O      0.996270000000     0.057700000000     0.770330000000    -0.38105    
O138     O      0.993970000000     0.935740000000     0.770290000000    -0.382171   
O139     O      0.056610000000     0.995240000000     0.771620000000    -0.379698   
O140     O      0.934690000000     0.998280000000     0.769010000000    -0.383662   
O141     O      0.936690000000     0.995190000000     0.718730000000    -0.380721   
O142     O      0.058620000000     0.998260000000     0.721340000000    -0.382611   
O143     O      0.999340000000     0.935710000000     0.720100000000    -0.382315   
O144     O      0.997020000000     0.057670000000     0.719970000000    -0.381082   
O145     O      0.029640000000     0.330010000000     0.540930000000    -0.382504   
O146     O      0.030780000000     0.328860000000     0.949700000000    -0.380666   
O147     O      0.030210000000     0.390430000000     0.994950000000    -0.381904   
O148     O      0.030250000000     0.268450000000     0.996080000000    -0.381413   
O149     O      0.962980000000     0.268440000000     0.994120000000    -0.382379   
O150     O      0.963000000000     0.390430000000     0.995250000000    -0.38285    
O151     O      0.963580000000     0.330010000000     0.949280000000    -0.383294   
O152     O      0.962440000000     0.328860000000     0.540500000000    -0.382036   
O153     O      0.962440000000     0.328920000000     0.699700000000    -0.382024   
O154     O      0.963580000000     0.330090000000     0.790930000000    -0.383536   
O155     O      0.963010000000     0.390510000000     0.744940000000    -0.382783   
O156     O      0.962970000000     0.268520000000     0.746100000000    -0.381782   
O157     O      0.030240000000     0.268520000000     0.744100000000    -0.380771   
O158     O      0.030210000000     0.390500000000     0.745280000000    -0.381765   
O159     O      0.030780000000     0.328900000000     0.790500000000    -0.380843   
O160     O      0.029640000000     0.330100000000     0.699270000000    -0.382593   


