data_structure

_audit_creation_method RASPA-1.0
_audit_creation_date 2023-5-22
_audit_author_name 'Poobodin Mano'

_cell_length_a    33.7381
_cell_length_b    33.7171
_cell_length_c    28.2731
_cell_angle_alpha 90.0008
_cell_angle_beta  89.9991
_cell_angle_gamma 89.998
_cell_volume      32162.1

_symmetry_cell_setting          triclinic
_symmetry_space_group_name_Hall 'P 1'
_symmetry_space_group_name_H-M  'P 1'
_symmetry_Int_Tables_number     1

_symmetry_equiv_pos_as_xyz 'x,y,z'

loop_
_atom_site_label
_atom_site_type_symbol
_atom_site_fract_x
_atom_site_fract_y
_atom_site_fract_z
_atom_site_charge
C1       C      0.513820000000     0.281630000000     0.087450000000     0.349116   
C2       C      0.402270000000     0.281410000000     0.954920000000     0.349184   
C3       C      0.513750000000     0.281690000000     0.954860000000     0.349328   
C4       C      0.402350000000     0.281360000000     0.087570000000     0.349403   
C5       C      0.185130000000     0.610590000000     0.955090000000     0.349128   
C6       C      0.184350000000     0.499020000000     0.087680000000     0.349241   
C7       C      0.185190000000     0.610530000000     0.087740000000     0.349182   
C8       C      0.184280000000     0.499080000000     0.955010000000     0.349195   
C9       C      0.516580000000     0.829360000000     0.087750000000     0.349366   
C10      C      0.405070000000     0.829110000000     0.955160000000     0.349152   
C11      C      0.516550000000     0.829420000000     0.955090000000     0.349303   
C12      C      0.405100000000     0.829060000000     0.087750000000     0.349156   
C13      C      0.733710000000     0.500230000000     0.087510000000     0.349237   
C14      C      0.734510000000     0.611840000000     0.954980000000     0.349076   
C15      C      0.733680000000     0.500330000000     0.954880000000     0.349253   
C16      C      0.734530000000     0.611750000000     0.087650000000     0.349241   
C17      C      0.234650000000     0.999060000000     0.587750000000     0.348532   
C18      C      0.233830000000     0.110540000000     0.455050000000     0.349229   
C19      C      0.234680000000     0.999020000000     0.455090000000     0.348534   
C20      C      0.233800000000     0.110580000000     0.587680000000     0.349238   
C21      C      0.905090000000     0.781600000000     0.455120000000     0.349026   
C22      C      0.016550000000     0.781370000000     0.587770000000     0.349135   
C23      C      0.905070000000     0.781660000000     0.587710000000     0.349047   
C24      C      0.016580000000     0.781300000000     0.455130000000     0.349331   
C25      C      0.685110000000     0.000320000000     0.587630000000     0.349586   
C26      C      0.684330000000     0.111750000000     0.454870000000     0.349332   
C27      C      0.685140000000     0.000230000000     0.455000000000     0.349663   
C28      C      0.684300000000     0.111840000000     0.587540000000     0.349315   
C29      C      0.902330000000     0.329480000000     0.454820000000     0.3491     
C30      C      0.013750000000     0.329230000000     0.587520000000     0.34901    
C31      C      0.902270000000     0.329520000000     0.587470000000     0.349184   
C32      C      0.013810000000     0.329190000000     0.454930000000     0.349075   
C33      C      0.194220000000     0.368940000000     0.219550000000     0.349169   
C34      C      0.222500000000     0.240880000000     0.323680000000     0.349108   
C35      C      0.272340000000     0.291180000000     0.219470000000     0.349184   
C36      C      0.144280000000     0.318670000000     0.323740000000     0.349103   
C37      C      0.644220000000     0.292040000000     0.218730000000     0.349306   
C38      C      0.772280000000     0.319550000000     0.323010000000     0.349211   
C39      C      0.722410000000     0.369840000000     0.218810000000     0.349108   
C40      C      0.694180000000     0.241770000000     0.322930000000     0.349021   
C41      C      0.644140000000     0.292220000000     0.823570000000     0.349172   
C42      C      0.772200000000     0.319700000000     0.719280000000     0.349037   
C43      C      0.722340000000     0.370020000000     0.823480000000     0.349177   
C44      C      0.694090000000     0.241940000000     0.719380000000     0.349123   
C45      C      0.774710000000     0.792030000000     0.323830000000     0.349127   
C46      C      0.646640000000     0.819500000000     0.219550000000     0.349071   
C47      C      0.696490000000     0.869820000000     0.323740000000     0.349094   
C48      C      0.724760000000     0.741740000000     0.219640000000     0.349019   
C49      C      0.724690000000     0.741920000000     0.823110000000     0.349072   
C50      C      0.696410000000     0.870000000000     0.719010000000     0.349147   
C51      C      0.646560000000     0.819670000000     0.823220000000     0.349027   
C52      C      0.774640000000     0.792210000000     0.718930000000     0.349197   
C53      C      0.146690000000     0.791130000000     0.323390000000     0.349094   
C54      C      0.274760000000     0.818590000000     0.219100000000     0.349212   
C55      C      0.224830000000     0.868890000000     0.323290000000     0.349198   
C56      C      0.196540000000     0.740810000000     0.219180000000     0.348997   
C57      C      0.274700000000     0.818700000000     0.823840000000     0.349013   
C58      C      0.146640000000     0.791270000000     0.719530000000     0.34914    
C59      C      0.196460000000     0.740940000000     0.823740000000     0.349284   
C60      C      0.224780000000     0.869000000000     0.719640000000     0.349138   
C61      C      0.272170000000     0.291320000000     0.823160000000     0.34917    
C62      C      0.144120000000     0.318770000000     0.718840000000     0.349253   
C63      C      0.194040000000     0.369060000000     0.823050000000     0.349091   
C64      C      0.222350000000     0.240990000000     0.718950000000     0.349188   
C65      C      0.048280000000     0.296460000000     0.655030000000    -0.00392073 
C66      C      0.045470000000     0.328480000000     0.623460000000    -0.0817911  
C67      C      0.074240000000     0.358580000000     0.625160000000    -0.00414661 
C68      C      0.106140000000     0.355830000000     0.656650000000    -0.00421384 
C69      C      0.109220000000     0.323460000000     0.687760000000    -0.0816037  
C70      C      0.079570000000     0.294210000000     0.687220000000    -0.00452309 
C71      C      0.048400000000     0.296400000000     0.387480000000    -0.00387655 
C72      C      0.045570000000     0.328430000000     0.419030000000    -0.0818124  
C73      C      0.074350000000     0.358520000000     0.417360000000    -0.00407876 
C74      C      0.106280000000     0.355760000000     0.385900000000    -0.00432858 
C75      C      0.109360000000     0.323380000000     0.354800000000    -0.0814546  
C76      C      0.079710000000     0.294130000000     0.355310000000    -0.0046332  
C77      C      0.842050000000     0.359080000000     0.416980000000    -0.00413118 
C78      C      0.870690000000     0.328870000000     0.418770000000    -0.0819603  
C79      C      0.867870000000     0.296890000000     0.387140000000    -0.00396961 
C80      C      0.836680000000     0.294780000000     0.354800000000    -0.00460819 
C81      C      0.807140000000     0.324140000000     0.354170000000    -0.081656   
C82      C      0.810230000000     0.356470000000     0.385350000000    -0.00426307 
C83      C      0.841980000000     0.359160000000     0.625290000000    -0.00411209 
C84      C      0.870610000000     0.328930000000     0.623510000000    -0.0819406  
C85      C      0.867760000000     0.296950000000     0.655130000000    -0.0039262  
C86      C      0.836570000000     0.294870000000     0.687470000000    -0.00468212 
C87      C      0.807050000000     0.324260000000     0.688100000000    -0.0815457  
C88      C      0.810160000000     0.356590000000     0.656920000000    -0.00434377 
C89      C      0.716640000000     0.146210000000     0.655410000000    -0.00383846 
C90      C      0.684790000000     0.143470000000     0.623620000000    -0.0820006  
C91      C      0.654660000000     0.172210000000     0.625250000000    -0.00404518 
C92      C      0.657240000000     0.204050000000     0.656890000000    -0.00432552 
C93      C      0.689460000000     0.207060000000     0.688220000000    -0.0815308  
C94      C      0.718710000000     0.177410000000     0.687750000000    -0.00462291 
C95      C      0.716690000000     0.146070000000     0.386970000000    -0.00380205 
C96      C      0.684830000000     0.143350000000     0.418760000000    -0.0820634  
C97      C      0.654710000000     0.172090000000     0.417080000000    -0.00399591 
C98      C      0.657300000000     0.203910000000     0.385410000000    -0.0043533  
C99      C      0.689530000000     0.206900000000     0.354100000000    -0.0814946  
C100     C      0.718780000000     0.177250000000     0.354610000000    -0.00466553 
C101     C      0.718100000000     0.965900000000     0.387480000000    -0.0037407  
C102     C      0.686080000000     0.968500000000     0.419050000000    -0.0824053  
C103     C      0.656180000000     0.939530000000     0.417340000000    -0.0039601  
C104     C      0.659150000000     0.907610000000     0.385870000000    -0.00441138 
C105     C      0.691530000000     0.904740000000     0.354770000000    -0.0814993  
C106     C      0.720570000000     0.934600000000     0.355290000000    -0.00479182 
C107     C      0.656130000000     0.939650000000     0.625340000000    -0.00405786 
C108     C      0.686030000000     0.968630000000     0.623630000000    -0.0823202  
C109     C      0.718040000000     0.966050000000     0.655220000000    -0.00382769 
C110     C      0.720490000000     0.934770000000     0.687440000000    -0.00469616 
C111     C      0.691460000000     0.904910000000     0.687970000000    -0.0815758  
C112     C      0.659090000000     0.907760000000     0.656860000000    -0.00432855 
C113     C      0.051090000000     0.813850000000     0.387450000000    -0.00386982 
C114     C      0.048240000000     0.781880000000     0.419100000000    -0.0819094  
C115     C      0.076890000000     0.751680000000     0.417370000000    -0.00403592 
C116     C      0.108730000000     0.754260000000     0.385760000000    -0.00431432 
C117     C      0.111830000000     0.786570000000     0.354560000000    -0.0815448  
C118     C      0.082290000000     0.815930000000     0.355140000000    -0.00458482 
C119     C      0.076840000000     0.751750000000     0.625600000000    -0.00409526 
C120     C      0.048200000000     0.781980000000     0.623800000000    -0.0818569  
C121     C      0.051060000000     0.813970000000     0.655410000000    -0.0038792  
C122     C      0.082260000000     0.816070000000     0.687730000000    -0.00455372 
C123     C      0.111780000000     0.786690000000     0.688370000000    -0.0815634  
C124     C      0.108660000000     0.754350000000     0.657210000000    -0.00426454 
C125     C      0.844550000000     0.752340000000     0.625320000000    -0.00418269 
C126     C      0.873320000000     0.782440000000     0.623620000000    -0.0819287  
C127     C      0.870490000000     0.814480000000     0.655160000000    -0.00399239 
C128     C      0.839190000000     0.816750000000     0.687330000000    -0.0045699  
C129     C      0.809540000000     0.787500000000     0.687870000000    -0.0817026  
C130     C      0.812630000000     0.755110000000     0.656780000000    -0.00424451 
C131     C      0.870550000000     0.814350000000     0.387610000000    -0.0039298  
C132     C      0.873360000000     0.782340000000     0.419190000000    -0.0819985  
C133     C      0.844600000000     0.752240000000     0.417510000000    -0.00410249 
C134     C      0.812690000000     0.754980000000     0.386030000000    -0.0043132  
C135     C      0.809610000000     0.787340000000     0.354900000000    -0.0816293  
C136     C      0.839260000000     0.816600000000     0.355420000000    -0.00467508 
C137     C      0.200890000000     0.144830000000     0.387480000000    -0.00390799 
C138     C      0.232910000000     0.142250000000     0.419060000000    -0.0818995  
C139     C      0.262790000000     0.171230000000     0.417350000000    -0.00408327 
C140     C      0.259830000000     0.203120000000     0.385840000000    -0.00432293 
C141     C      0.227450000000     0.205970000000     0.354730000000    -0.0815379  
C142     C      0.198430000000     0.176100000000     0.355270000000    -0.00460911 
C143     C      0.200810000000     0.144890000000     0.655210000000    -0.00389296 
C144     C      0.232840000000     0.142310000000     0.623650000000    -0.0818537  
C145     C      0.262720000000     0.171300000000     0.625360000000    -0.00414411 
C146     C      0.259730000000     0.203210000000     0.656840000000    -0.00426103 
C147     C      0.227340000000     0.206070000000     0.687930000000    -0.0815643  
C148     C      0.198320000000     0.176180000000     0.687400000000    -0.00462749 
C149     C      0.200230000000     0.933560000000     0.688030000000    -0.00459467 
C150     C      0.229450000000     0.903880000000     0.688480000000    -0.0815535  
C151     C      0.261650000000     0.906850000000     0.657120000000    -0.00428896 
C152     C      0.264250000000     0.938680000000     0.625470000000    -0.00418536 
C153     C      0.234150000000     0.967450000000     0.623850000000    -0.0818112  
C154     C      0.202320000000     0.964760000000     0.655680000000    -0.00397973 
C155     C      0.202360000000     0.964670000000     0.387180000000    -0.00401705 
C156     C      0.234190000000     0.967380000000     0.419010000000    -0.0817547  
C157     C      0.264280000000     0.938610000000     0.417430000000    -0.00418436 
C158     C      0.261690000000     0.906750000000     0.385810000000    -0.00430901 
C159     C      0.229490000000     0.903770000000     0.354440000000    -0.0816183  
C160     C      0.200270000000     0.933460000000     0.354860000000    -0.00458164 
C161     C      0.762680000000     0.439530000000     0.125170000000    -0.00408489 
C162     C      0.732780000000     0.468510000000     0.123470000000    -0.0820444  
C163     C      0.700760000000     0.465910000000     0.155050000000    -0.00387695 
C164     C      0.698310000000     0.434620000000     0.187250000000    -0.00472382 
C165     C      0.727350000000     0.404760000000     0.187770000000    -0.0814976  
C166     C      0.759730000000     0.407630000000     0.156650000000    -0.00440358 
C167     C      0.702220000000     0.646040000000     0.155600000000    -0.00381341 
C168     C      0.734050000000     0.643340000000     0.123780000000    -0.0820442  
C169     C      0.764180000000     0.672080000000     0.125430000000    -0.00410094 
C170     C      0.761600000000     0.703890000000     0.157110000000    -0.00433865 
C171     C      0.729400000000     0.706880000000     0.188460000000    -0.0815334  
C172     C      0.700150000000     0.677210000000     0.187990000000    -0.00473239 
C173     C      0.764130000000     0.672220000000     0.917270000000    -0.00412757 
C174     C      0.734010000000     0.643470000000     0.918900000000    -0.0818645  
C175     C      0.702170000000     0.646190000000     0.887090000000    -0.00388726 
C176     C      0.700090000000     0.677390000000     0.854740000000    -0.0046259  
C177     C      0.729330000000     0.707050000000     0.854280000000    -0.0815555  
C178     C      0.761540000000     0.704050000000     0.885620000000    -0.00427423 
C179     C      0.700710000000     0.466050000000     0.887330000000    -0.00386109 
C180     C      0.732740000000     0.468640000000     0.918880000000    -0.0819663  
C181     C      0.762650000000     0.439680000000     0.917120000000    -0.00407381 
C182     C      0.759690000000     0.407790000000     0.885600000000    -0.00431066 
C183     C      0.727290000000     0.404930000000     0.854520000000    -0.081581   
C184     C      0.698250000000     0.434780000000     0.855100000000    -0.00464057 
C185     C      0.576850000000     0.858990000000     0.125580000000    -0.0040142  
C186     C      0.548220000000     0.828760000000     0.123780000000    -0.0821807  
C187     C      0.551080000000     0.796770000000     0.155390000000    -0.0037789  
C188     C      0.582270000000     0.794680000000     0.187730000000    -0.00473482 
C189     C      0.611780000000     0.824070000000     0.188370000000    -0.0814634  
C190     C      0.608670000000     0.856400000000     0.157210000000    -0.0044061  
C191     C      0.370560000000     0.796250000000     0.155230000000    -0.00396212 
C192     C      0.373380000000     0.828300000000     0.123690000000    -0.0819659  
C193     C      0.344630000000     0.858420000000     0.125430000000    -0.00415552 
C194     C      0.312740000000     0.855670000000     0.156930000000    -0.00429641 
C195     C      0.309660000000     0.823280000000     0.188020000000    -0.0816224  
C196     C      0.339280000000     0.794000000000     0.187440000000    -0.00460327 
C197     C      0.344590000000     0.858480000000     0.917520000000    -0.00403314 
C198     C      0.373340000000     0.828370000000     0.919230000000    -0.081949   
C199     C      0.370510000000     0.796340000000     0.887670000000    -0.0038442  
C200     C      0.339230000000     0.794100000000     0.855460000000    -0.00467853 
C201     C      0.309590000000     0.823380000000     0.854920000000    -0.0815334  
C202     C      0.312680000000     0.855750000000     0.886030000000    -0.00431211 
C203     C      0.551030000000     0.796880000000     0.887390000000    -0.00389972 
C204     C      0.548180000000     0.828850000000     0.919030000000    -0.0819609  
C205     C      0.576800000000     0.859090000000     0.917250000000    -0.00408395 
C206     C      0.608610000000     0.856530000000     0.885600000000    -0.00428062 
C207     C      0.611720000000     0.824210000000     0.854400000000    -0.0816268  
C208     C      0.582210000000     0.794820000000     0.855030000000    -0.0045659  
C209     C      0.156210000000     0.671160000000     0.125560000000    -0.00407336 
C210     C      0.186140000000     0.642220000000     0.123740000000    -0.0819989  
C211     C      0.218200000000     0.644830000000     0.155260000000    -0.00386953 
C212     C      0.220670000000     0.676090000000     0.187500000000    -0.00468381 
C213     C      0.191590000000     0.705910000000     0.188130000000    -0.0815337  
C214     C      0.159170000000     0.703030000000     0.157090000000    -0.00432394 
C215     C      0.154750000000     0.438650000000     0.125410000000    -0.00402923 
C216     C      0.184860000000     0.467390000000     0.123770000000    -0.0819623  
C217     C      0.216720000000     0.464670000000     0.155550000000    -0.00387599 
C218     C      0.218810000000     0.433470000000     0.187900000000    -0.00461402 
C219     C      0.189570000000     0.403810000000     0.188380000000    -0.0815454  
C220     C      0.157340000000     0.406810000000     0.157060000000    -0.00435803 
C221     C      0.154640000000     0.438720000000     0.917280000000    -0.00405225 
C222     C      0.184750000000     0.467480000000     0.918890000000    -0.0818946  
C223     C      0.216550000000     0.464790000000     0.887020000000    -0.0038654  
C224     C      0.218610000000     0.433610000000     0.854650000000    -0.00460732 
C225     C      0.189390000000     0.403930000000     0.854220000000    -0.0815267  
C226     C      0.157210000000     0.406900000000     0.885610000000    -0.00426591 
C227     C      0.156180000000     0.671290000000     0.917420000000    -0.00406598 
C228     C      0.186050000000     0.642300000000     0.919110000000    -0.081868   
C229     C      0.218050000000     0.644860000000     0.887500000000    -0.00391434 
C230     C      0.220510000000     0.676140000000     0.855290000000    -0.00460571 
C231     C      0.191500000000     0.706030000000     0.854780000000    -0.0815865  
C232     C      0.159140000000     0.703190000000     0.885920000000    -0.00423321 
C233     C      0.342090000000     0.251710000000     0.125440000000    -0.00407779 
C234     C      0.370720000000     0.281940000000     0.123640000000    -0.0820162  
C235     C      0.367890000000     0.313920000000     0.155280000000    -0.00388646 
C236     C      0.336720000000     0.316000000000     0.187640000000    -0.0046775  
C237     C      0.307190000000     0.286610000000     0.188280000000    -0.0815387  
C238     C      0.310290000000     0.254290000000     0.157100000000    -0.00432212 
C239     C      0.579670000000     0.316610000000     0.187150000000    -0.00466739 
C240     C      0.609320000000     0.287350000000     0.187650000000    -0.0816219  
C241     C      0.606240000000     0.255000000000     0.156510000000    -0.00430458 
C242     C      0.574330000000     0.252270000000     0.125030000000    -0.00408781 
C243     C      0.545560000000     0.282360000000     0.123370000000    -0.0819813  
C244     C      0.548380000000     0.314370000000     0.154960000000    -0.00388481 
C245     C      0.574250000000     0.252360000000     0.917220000000    -0.00404221 
C246     C      0.545480000000     0.282450000000     0.918920000000    -0.0819363  
C247     C      0.548280000000     0.314480000000     0.887360000000    -0.00388916 
C248     C      0.579570000000     0.316750000000     0.855170000000    -0.00462042 
C249     C      0.609230000000     0.287500000000     0.854630000000    -0.0815321  
C250     C      0.606160000000     0.255120000000     0.885740000000    -0.00430113 
C251     C      0.341970000000     0.251810000000     0.917110000000    -0.00409415 
C252     C      0.370600000000     0.282030000000     0.918900000000    -0.0818433  
C253     C      0.367750000000     0.314020000000     0.887290000000    -0.00392292 
C254     C      0.336540000000     0.316130000000     0.854970000000    -0.00459225 
C255     C      0.307020000000     0.286740000000     0.854330000000    -0.0816118  
C256     C      0.310140000000     0.254410000000     0.885490000000    -0.00421227 
Cu1      Cu     0.458120000000     0.244570000000     0.021170000000     0.832501   
Cu2      Cu     0.457950000000     0.318110000000     0.021220000000     0.848378   
Cu3      Cu     0.147800000000     0.555070000000     0.021410000000     0.832036   
Cu4      Cu     0.221290000000     0.554530000000     0.021350000000     0.848867   
Cu5      Cu     0.460930000000     0.792650000000     0.021420000000     0.848453   
Cu6      Cu     0.460740000000     0.866190000000     0.021460000000     0.832492   
Cu7      Cu     0.697550000000     0.556310000000     0.021270000000     0.848901   
Cu8      Cu     0.771050000000     0.555780000000     0.021240000000     0.831894   
Cu9      Cu     0.197690000000     0.054530000000     0.521380000000     0.849511   
Cu10     Cu     0.271180000000     0.055060000000     0.521400000000     0.832337   
Cu11     Cu     0.960740000000     0.744530000000     0.521450000000     0.831928   
Cu12     Cu     0.960930000000     0.818070000000     0.521410000000     0.847756   
Cu13     Cu     0.647780000000     0.055790000000     0.521250000000     0.832589   
Cu14     Cu     0.721280000000     0.056300000000     0.521270000000     0.849476   
Cu15     Cu     0.957930000000     0.292770000000     0.521200000000     0.847763   
Cu16     Cu     0.958120000000     0.366310000000     0.521170000000     0.831752   
Cu17     Cu     0.228490000000     0.325190000000     0.299140000000     0.840792   
Cu18     Cu     0.188150000000     0.284630000000     0.244120000000     0.840429   
Cu19     Cu     0.688080000000     0.326080000000     0.298370000000     0.84053    
Cu20     Cu     0.728440000000     0.285530000000     0.243340000000     0.84067    
Cu21     Cu     0.728350000000     0.285700000000     0.798960000000     0.840818   
Cu22     Cu     0.688000000000     0.326250000000     0.743930000000     0.84031    
Cu23     Cu     0.730840000000     0.826050000000     0.244190000000     0.840347   
Cu24     Cu     0.690490000000     0.785500000000     0.299220000000     0.840742   
Cu25     Cu     0.730760000000     0.826230000000     0.798570000000     0.840293   
Cu26     Cu     0.690420000000     0.785680000000     0.743530000000     0.840867   
Cu27     Cu     0.230900000000     0.784570000000     0.298740000000     0.84027    
Cu28     Cu     0.190550000000     0.825130000000     0.243720000000     0.840866   
Cu29     Cu     0.190490000000     0.825250000000     0.799210000000     0.840702   
Cu30     Cu     0.230830000000     0.784690000000     0.744190000000     0.840245   
Cu31     Cu     0.228330000000     0.325300000000     0.743470000000     0.840766   
Cu32     Cu     0.187970000000     0.284750000000     0.798490000000     0.840506   
H1       H      0.026400000000     0.272940000000     0.654620000000     0.0425979  
H2       H      0.072830000000     0.383510000000     0.601050000000     0.0429187  
H3       H      0.128540000000     0.378850000000     0.656400000000     0.0434898  
H4       H      0.081240000000     0.268800000000     0.710590000000     0.0432731  
H5       H      0.026510000000     0.272890000000     0.387860000000     0.0425652  
H6       H      0.072930000000     0.383460000000     0.441460000000     0.0428958  
H7       H      0.128680000000     0.378770000000     0.386170000000     0.0435195  
H8       H      0.081390000000     0.268720000000     0.331950000000     0.0432892  
H9       H      0.843470000000     0.383990000000     0.441120000000     0.0427979  
H10      H      0.889670000000     0.273300000000     0.387610000000     0.0423465  
H11      H      0.834980000000     0.269390000000     0.331400000000     0.0431319  
H12      H      0.787900000000     0.379570000000     0.385540000000     0.0434323  
H13      H      0.843430000000     0.384060000000     0.601140000000     0.0428016  
H14      H      0.889540000000     0.273340000000     0.654670000000     0.0423614  
H15      H      0.834850000000     0.269490000000     0.710870000000     0.0431784  
H16      H      0.787860000000     0.379700000000     0.656730000000     0.0434579  
H17      H      0.740160000000     0.124330000000     0.655070000000     0.0423967  
H18      H      0.629860000000     0.170840000000     0.600970000000     0.0427535  
H19      H      0.634230000000     0.226460000000     0.656580000000     0.0434685  
H20      H      0.744010000000     0.179040000000     0.711270000000     0.0432446  
H21      H      0.740220000000     0.124190000000     0.387350000000     0.0423612  
H22      H      0.629900000000     0.170740000000     0.441350000000     0.042746   
H23      H      0.634290000000     0.226320000000     0.385700000000     0.0434761  
H24      H      0.744090000000     0.178860000000     0.331100000000     0.0432201  
H25      H      0.741450000000     0.987960000000     0.387880000000     0.042249   
H26      H      0.631260000000     0.940770000000     0.441450000000     0.0427153  
H27      H      0.636300000000     0.885040000000     0.386120000000     0.0435071  
H28      H      0.745980000000     0.933090000000     0.331930000000     0.0431756  
H29      H      0.631220000000     0.940880000000     0.601230000000     0.0427493  
H30      H      0.741390000000     0.988100000000     0.654800000000     0.0422831  
H31      H      0.745900000000     0.933280000000     0.710800000000     0.0431692  
H32      H      0.636240000000     0.885190000000     0.656610000000     0.0434918  
H33      H      0.029280000000     0.837440000000     0.387880000000     0.0425382  
H34      H      0.075450000000     0.726790000000     0.441540000000     0.0428577  
H35      H      0.131050000000     0.731170000000     0.385980000000     0.0435012  
H36      H      0.084000000000     0.841300000000     0.331710000000     0.0432395  
H37      H      0.075390000000     0.726840000000     0.601460000000     0.0428899  
H38      H      0.029270000000     0.837580000000     0.654930000000     0.0425511  
H39      H      0.083970000000     0.841470000000     0.711120000000     0.0432338  
H40      H      0.130970000000     0.731250000000     0.657030000000     0.0434975  
H41      H      0.845970000000     0.727400000000     0.601230000000     0.0428316  
H42      H      0.892380000000     0.837990000000     0.654750000000     0.0423395  
H43      H      0.837510000000     0.842180000000     0.710680000000     0.0431238  
H44      H      0.790230000000     0.732090000000     0.656530000000     0.0434435  
H45      H      0.892430000000     0.837870000000     0.388000000000     0.0423088  
H46      H      0.846010000000     0.727310000000     0.441630000000     0.0428027  
H47      H      0.790290000000     0.731960000000     0.386290000000     0.0434537  
H48      H      0.837580000000     0.842000000000     0.332040000000     0.0431394  
H49      H      0.177540000000     0.122770000000     0.387890000000     0.0424854  
H50      H      0.287710000000     0.170000000000     0.441470000000     0.0428347  
H51      H      0.282670000000     0.225700000000     0.386090000000     0.043516   
H52      H      0.173020000000     0.177600000000     0.331900000000     0.0432458  
H53      H      0.177470000000     0.122820000000     0.654800000000     0.0424997  
H54      H      0.287650000000     0.170070000000     0.601260000000     0.0428454  
H55      H      0.282570000000     0.225790000000     0.656590000000     0.0435039  
H56      H      0.172900000000     0.177680000000     0.710750000000     0.043272   
H57      H      0.174940000000     0.931970000000     0.711570000000     0.0432545  
H58      H      0.284630000000     0.884410000000     0.656790000000     0.043443   
H59      H      0.289030000000     0.940010000000     0.601160000000     0.0427111  
H60      H      0.178820000000     0.986660000000     0.655340000000     0.0423644  
H61      H      0.178870000000     0.986580000000     0.387490000000     0.0423623  
H62      H      0.289060000000     0.939950000000     0.441740000000     0.0427028  
H63      H      0.284660000000     0.884310000000     0.386160000000     0.0434462  
H64      H      0.174990000000     0.931860000000     0.331310000000     0.0432344  
H65      H      0.787600000000     0.440770000000     0.101050000000     0.0427112  
H66      H      0.677410000000     0.487960000000     0.154650000000     0.0424054  
H67      H      0.672910000000     0.433110000000     0.210610000000     0.0432209  
H68      H      0.782580000000     0.385060000000     0.156390000000     0.0434486  
H69      H      0.678710000000     0.624150000000     0.155250000000     0.0423474  
H70      H      0.788960000000     0.670740000000     0.101120000000     0.0426504  
H71      H      0.784600000000     0.726310000000     0.156800000000     0.0433805  
H72      H      0.674870000000     0.678810000000     0.211520000000     0.0432648  
H73      H      0.788920000000     0.670860000000     0.941560000000     0.0427791  
H74      H      0.678650000000     0.624310000000     0.887440000000     0.0424163  
H75      H      0.674800000000     0.679000000000     0.831220000000     0.0432547  
H76      H      0.784540000000     0.726470000000     0.885940000000     0.0434299  
H77      H      0.677340000000     0.488090000000     0.887770000000     0.0424341  
H78      H      0.787590000000     0.440910000000     0.941210000000     0.0428434  
H79      H      0.782550000000     0.385230000000     0.885820000000     0.0434997  
H80      H      0.672830000000     0.433270000000     0.831760000000     0.043212   
H81      H      0.575410000000     0.883900000000     0.101450000000     0.0427235  
H82      H      0.529290000000     0.773160000000     0.154920000000     0.0423782  
H83      H      0.583980000000     0.769290000000     0.211120000000     0.0432125  
H84      H      0.630970000000     0.879510000000     0.157040000000     0.0434303  
H85      H      0.392430000000     0.772730000000     0.154800000000     0.0424367  
H86      H      0.346050000000     0.883360000000     0.101350000000     0.0427981  
H87      H      0.290350000000     0.878700000000     0.156720000000     0.0434361  
H88      H      0.337600000000     0.768580000000     0.210790000000     0.0431771  
H89      H      0.346000000000     0.883420000000     0.941630000000     0.042871   
H90      H      0.392390000000     0.772810000000     0.888070000000     0.0424535  
H91      H      0.337540000000     0.768690000000     0.832100000000     0.0432426  
H92      H      0.290290000000     0.878780000000     0.886280000000     0.0435123  
H93      H      0.529250000000     0.773270000000     0.887850000000     0.0424618  
H94      H      0.575360000000     0.883980000000     0.941410000000     0.0428625  
H95      H      0.630910000000     0.879640000000     0.885790000000     0.0434671  
H96      H      0.583920000000     0.769440000000     0.831610000000     0.0431887  
H97      H      0.131250000000     0.669910000000     0.101500000000     0.0428316  
H98      H      0.241590000000     0.622810000000     0.154770000000     0.0424095  
H99      H      0.246110000000     0.677610000000     0.210810000000     0.0431937  
H100     H      0.136290000000     0.725570000000     0.156910000000     0.043515   
H101     H      0.129940000000     0.440000000000     0.101140000000     0.042733   
H102     H      0.240240000000     0.486550000000     0.155190000000     0.0423779  
H103     H      0.244120000000     0.431860000000     0.211410000000     0.0432313  
H104     H      0.134350000000     0.384390000000     0.156760000000     0.0435001  
H105     H      0.129880000000     0.440040000000     0.941620000000     0.0428594  
H106     H      0.240050000000     0.486690000000     0.887350000000     0.0424071  
H107     H      0.243880000000     0.432030000000     0.831080000000     0.0432594  
H108     H      0.134230000000     0.384460000000     0.885950000000     0.0435566  
H109     H      0.131270000000     0.670080000000     0.941560000000     0.0429306  
H110     H      0.241390000000     0.622790000000     0.887890000000     0.0424543  
H111     H      0.245900000000     0.677620000000     0.831900000000     0.0432298  
H112     H      0.136300000000     0.725780000000     0.886190000000     0.0435787  
H113     H      0.343520000000     0.226810000000     0.101290000000     0.0427996  
H114     H      0.389680000000     0.337520000000     0.154800000000     0.0424164  
H115     H      0.335010000000     0.341380000000     0.211050000000     0.0432022  
H116     H      0.287980000000     0.231190000000     0.156920000000     0.0434798  
H117     H      0.581340000000     0.342000000000     0.210530000000     0.0432175  
H118     H      0.628650000000     0.231990000000     0.156240000000     0.0434585  
H119     H      0.572930000000     0.227350000000     0.100900000000     0.0427888  
H120     H      0.526480000000     0.337880000000     0.154580000000     0.0424124  
H121     H      0.572850000000     0.227420000000     0.941320000000     0.042906   
H122     H      0.526390000000     0.337990000000     0.887770000000     0.0424553  
H123     H      0.581240000000     0.342170000000     0.831810000000     0.0432189  
H124     H      0.628570000000     0.232110000000     0.885990000000     0.0435295  
H125     H      0.343410000000     0.226890000000     0.941240000000     0.0429184  
H126     H      0.389530000000     0.337630000000     0.887760000000     0.0424729  
H127     H      0.334830000000     0.341520000000     0.831580000000     0.043202   
H128     H      0.287830000000     0.231300000000     0.885680000000     0.0435089  
O1       O      0.500990000000     0.248320000000     0.071690000000    -0.380375   
O2       O      0.415240000000     0.248160000000     0.970650000000    -0.380268   
O3       O      0.500940000000     0.248370000000     0.970590000000    -0.380235   
O4       O      0.415300000000     0.248120000000     0.071770000000    -0.380522   
O5       O      0.415750000000     0.314440000000     0.072000000000    -0.384786   
O6       O      0.500160000000     0.314690000000     0.970440000000    -0.384577   
O7       O      0.415700000000     0.314490000000     0.970500000000    -0.3844     
O8       O      0.500220000000     0.314650000000     0.071920000000    -0.384727   
O9       O      0.151780000000     0.597940000000     0.970860000000    -0.38004    
O10      O      0.151170000000     0.512140000000     0.071950000000    -0.380259   
O11      O      0.151830000000     0.597890000000     0.072000000000    -0.380381   
O12      O      0.151120000000     0.512190000000     0.970810000000    -0.380046   
O13      O      0.217410000000     0.512340000000     0.970580000000    -0.384569   
O14      O      0.218110000000     0.596780000000     0.072120000000    -0.384767   
O15      O      0.217460000000     0.512290000000     0.072080000000    -0.384812   
O16      O      0.218060000000     0.596820000000     0.970640000000    -0.384558   
O17      O      0.503160000000     0.796290000000     0.072150000000    -0.384785   
O18      O      0.418680000000     0.796090000000     0.970690000000    -0.384455   
O19      O      0.503140000000     0.796330000000     0.970650000000    -0.384432   
O20      O      0.418700000000     0.796050000000     0.072170000000    -0.384718   
O21      O      0.417910000000     0.862380000000     0.072020000000    -0.380496   
O22      O      0.503570000000     0.862650000000     0.970880000000    -0.380326   
O23      O      0.417890000000     0.862420000000     0.970910000000    -0.380198   
O24      O      0.503600000000     0.862610000000     0.072000000000    -0.380527   
O25      O      0.700780000000     0.514000000000     0.071960000000    -0.384825   
O26      O      0.701390000000     0.598560000000     0.970560000000    -0.384522   
O27      O      0.700760000000     0.514070000000     0.970480000000    -0.384586   
O28      O      0.701410000000     0.598490000000     0.072060000000    -0.384825   
O29      O      0.767700000000     0.598650000000     0.071860000000    -0.380308   
O30      O      0.767040000000     0.512970000000     0.970630000000    -0.380194   
O31      O      0.767690000000     0.598720000000     0.970720000000    -0.380069   
O32      O      0.767060000000     0.512900000000     0.071770000000    -0.380419   
O33      O      0.201530000000     0.012330000000     0.572150000000    -0.384363   
O34      O      0.200910000000     0.096790000000     0.470620000000    -0.384815   
O35      O      0.201560000000     0.012300000000     0.470660000000    -0.384475   
O36      O      0.200880000000     0.096820000000     0.572100000000    -0.384795   
O37      O      0.267160000000     0.097930000000     0.571950000000    -0.380329   
O38      O      0.267850000000     0.012140000000     0.470850000000    -0.37992    
O39      O      0.267190000000     0.097900000000     0.470820000000    -0.380292   
O40      O      0.267820000000     0.012170000000     0.571990000000    -0.379916   
O41      O      0.917910000000     0.748290000000     0.470890000000    -0.380384   
O42      O      0.003580000000     0.748110000000     0.572030000000    -0.379898   
O43      O      0.917890000000     0.748340000000     0.571990000000    -0.380414   
O44      O      0.003600000000     0.748070000000     0.470900000000    -0.380097   
O45      O      0.003160000000     0.814390000000     0.470670000000    -0.384267   
O46      O      0.918670000000     0.814670000000     0.572130000000    -0.384637   
O47      O      0.003140000000     0.814440000000     0.572170000000    -0.384265   
O48      O      0.918690000000     0.814620000000     0.470660000000    -0.384604   
O49      O      0.651760000000     0.012970000000     0.571860000000    -0.380345   
O50      O      0.651150000000     0.098660000000     0.470640000000    -0.380315   
O51      O      0.651780000000     0.012900000000     0.470720000000    -0.380355   
O52      O      0.651130000000     0.098720000000     0.571780000000    -0.380354   
O53      O      0.717420000000     0.098550000000     0.571980000000    -0.384852   
O54      O      0.718060000000     0.013990000000     0.470570000000    -0.384883   
O55      O      0.717440000000     0.098480000000     0.470480000000    -0.384885   
O56      O      0.718040000000     0.014060000000     0.572050000000    -0.384822   
O57      O      0.915740000000     0.296400000000     0.470420000000    -0.384643   
O58      O      0.000160000000     0.296210000000     0.571970000000    -0.38409    
O59      O      0.915690000000     0.296430000000     0.571920000000    -0.384687   
O60      O      0.000210000000     0.296180000000     0.470490000000    -0.384153   
O61      O      0.000990000000     0.362510000000     0.470650000000    -0.379919   
O62      O      0.915240000000     0.362760000000     0.571710000000    -0.380446   
O63      O      0.000940000000     0.362540000000     0.571750000000    -0.379886   
O64      O      0.915290000000     0.362730000000     0.470580000000    -0.380409   
O65      O      0.215650000000     0.372000000000     0.256820000000    -0.384033   
O66      O      0.237800000000     0.274180000000     0.335900000000    -0.381619   
O67      O      0.275320000000     0.312640000000     0.256740000000    -0.383909   
O68      O      0.177470000000     0.334160000000     0.335970000000    -0.381557   
O69      O      0.141310000000     0.297200000000     0.286480000000    -0.383894   
O70      O      0.239160000000     0.275660000000     0.207280000000    -0.381594   
O71      O      0.201010000000     0.237810000000     0.286460000000    -0.383817   
O72      O      0.178890000000     0.335660000000     0.207320000000    -0.3814     
O73      O      0.641250000000     0.313500000000     0.256000000000    -0.383979   
O74      O      0.739090000000     0.335060000000     0.335200000000    -0.381606   
O75      O      0.700930000000     0.372910000000     0.256040000000    -0.383844   
O76      O      0.678830000000     0.275050000000     0.335160000000    -0.381368   
O77      O      0.715600000000     0.238710000000     0.285650000000    -0.383976   
O78      O      0.737720000000     0.336550000000     0.206580000000    -0.381658   
O79      O      0.775260000000     0.298090000000     0.285740000000    -0.383985   
O80      O      0.677410000000     0.276560000000     0.206510000000    -0.381612   
O81      O      0.677330000000     0.276740000000     0.835800000000    -0.381577   
O82      O      0.775180000000     0.298250000000     0.756560000000    -0.383867   
O83      O      0.737650000000     0.336730000000     0.835710000000    -0.38159    
O84      O      0.715520000000     0.238890000000     0.756660000000    -0.384066   
O85      O      0.678750000000     0.275210000000     0.707140000000    -0.381396   
O86      O      0.700850000000     0.373080000000     0.786260000000    -0.383846   
O87      O      0.739010000000     0.335220000000     0.707090000000    -0.381483   
O88      O      0.641160000000     0.313680000000     0.786300000000    -0.383873   
O89      O      0.777670000000     0.813490000000     0.286560000000    -0.383995   
O90      O      0.679820000000     0.835020000000     0.207350000000    -0.381527   
O91      O      0.717980000000     0.872880000000     0.286510000000    -0.383844   
O92      O      0.740090000000     0.775020000000     0.207400000000    -0.381458   
O93      O      0.703330000000     0.738680000000     0.256920000000    -0.383982   
O94      O      0.681190000000     0.836530000000     0.335970000000    -0.381593   
O95      O      0.643660000000     0.798040000000     0.256820000000    -0.383887   
O96      O      0.741510000000     0.776550000000     0.336060000000    -0.381518   
O97      O      0.740020000000     0.775200000000     0.835350000000    -0.381406   
O98      O      0.717900000000     0.873070000000     0.756240000000    -0.383738   
O99      O      0.679750000000     0.835190000000     0.835410000000    -0.381471   
O100     O      0.777600000000     0.813670000000     0.756190000000    -0.383965   
O101     O      0.741440000000     0.776720000000     0.706700000000    -0.381538   
O102     O      0.643590000000     0.798220000000     0.785930000000    -0.383832   
O103     O      0.681120000000     0.836710000000     0.706780000000    -0.381659   
O104     O      0.703260000000     0.738870000000     0.785830000000    -0.384044   
O105     O      0.179880000000     0.775610000000     0.335580000000    -0.381449   
O106     O      0.277730000000     0.797130000000     0.256370000000    -0.383962   
O107     O      0.240160000000     0.835610000000     0.335530000000    -0.381376   
O108     O      0.218030000000     0.737740000000     0.256410000000    -0.383695   
O109     O      0.181240000000     0.774110000000     0.206960000000    -0.381542   
O110     O      0.203400000000     0.871940000000     0.286020000000    -0.384126   
O111     O      0.241570000000     0.834080000000     0.206880000000    -0.381628   
O112     O      0.143720000000     0.812590000000     0.286120000000    -0.383878   
O113     O      0.241510000000     0.834200000000     0.836060000000    -0.381445   
O114     O      0.143660000000     0.812720000000     0.756810000000    -0.383851   
O115     O      0.181170000000     0.774230000000     0.835970000000    -0.381621   
O116     O      0.203350000000     0.872070000000     0.756910000000    -0.383998   
O117     O      0.240110000000     0.835720000000     0.707410000000    -0.381448   
O118     O      0.217950000000     0.737860000000     0.786520000000    -0.383808   
O119     O      0.179820000000     0.775740000000     0.707340000000    -0.381523   
O120     O      0.277670000000     0.797230000000     0.786570000000    -0.383796   
O121     O      0.275150000000     0.312770000000     0.785890000000    -0.383937   
O122     O      0.177310000000     0.334250000000     0.706620000000    -0.381599   
O123     O      0.215460000000     0.372120000000     0.785770000000    -0.383992   
O124     O      0.237650000000     0.274280000000     0.706730000000    -0.381693   
O125     O      0.200850000000     0.237920000000     0.756170000000    -0.383781   
O126     O      0.178700000000     0.335780000000     0.835280000000    -0.381338   
O127     O      0.141140000000     0.297310000000     0.756110000000    -0.383886   
O128     O      0.238980000000     0.275790000000     0.835340000000    -0.381453   


