data_structure

_audit_creation_method RASPA-1.0
_audit_creation_date 2023-6-4
_audit_author_name 'Poobodin Mano'

_cell_length_a    29.4105
_cell_length_b    30.3737
_cell_length_c    21.6783
_cell_angle_alpha 89.9989
_cell_angle_beta  89.9989
_cell_angle_gamma 96.5861
_cell_volume      19237.5

_symmetry_cell_setting          triclinic
_symmetry_space_group_name_Hall 'P 1'
_symmetry_space_group_name_H-M  'P 1'
_symmetry_Int_Tables_number     1

_symmetry_equiv_pos_as_xyz 'x,y,z'

loop_
_atom_site_label
_atom_site_type_symbol
_atom_site_fract_x
_atom_site_fract_y
_atom_site_fract_z
_atom_site_charge
C1       C      0.060480000000     0.425280000000     0.009500000000     0.334591   
C2       C      0.438670000000     0.045070000000     0.005370000000     0.334485   
C3       C      0.066010000000     0.049710000000     0.007540000000     0.350638   
C4       C      0.433090000000     0.420570000000     0.007280000000     0.350582   
C5       C      0.060220000000     0.425550000000     0.505780000000     0.335193   
C6       C      0.438400000000     0.045330000000     0.509910000000     0.335125   
C7       C      0.065740000000     0.049990000000     0.507750000000     0.351417   
C8       C      0.432830000000     0.420840000000     0.507990000000     0.351276   
C9       C      0.247720000000     0.237100000000     0.890500000000     0.419969   
C10      C      0.250990000000     0.232820000000     0.124810000000     0.420533   
C11      C      0.308530000000     0.177670000000     0.004530000000     0.394523   
C12      C      0.191010000000     0.293040000000     0.010450000000     0.394295   
C13      C      0.250780000000     0.233020000000     0.390500000000     0.420952   
C14      C      0.247520000000     0.237310000000     0.624810000000     0.420185   
C15      C      0.308260000000     0.177930000000     0.510770000000     0.394511   
C16      C      0.190750000000     0.293310000000     0.504850000000     0.394262   
C17      C      0.213520000000     0.210660000000     0.789810000000     0.00188176 
C18      C      0.247130000000     0.237790000000     0.822570000000    -0.105669   
C19      C      0.280500000000     0.265200000000     0.789800000000     0.00203704 
C20      C      0.280450000000     0.265250000000     0.725500000000     0.00214079 
C21      C      0.247020000000     0.237900000000     0.692740000000    -0.105872   
C22      C      0.213460000000     0.210720000000     0.725510000000     0.00197645 
C23      C      0.221860000000     0.201000000000     0.225500000000     0.00200682 
C24      C      0.251520000000     0.232210000000     0.192740000000    -0.105962   
C25      C      0.281330000000     0.263260000000     0.225510000000     0.00201835 
C26      C      0.281280000000     0.263310000000     0.289790000000     0.00210561 
C27      C      0.251400000000     0.232320000000     0.322570000000    -0.106124   
C28      C      0.221800000000     0.201060000000     0.289820000000     0.00212858 
C29      C      0.087510000000     0.354680000000     0.465600000000    -0.0117867  
C30      C      0.093810000000     0.391870000000     0.504850000000    -0.0702004  
C31      C      0.132340000000     0.396240000000     0.543890000000    -0.0113091  
C32      C      0.164080000000     0.364820000000     0.542910000000     0.00344249 
C33      C      0.157320000000     0.327150000000     0.504630000000    -0.0943058  
C34      C      0.118340000000     0.322340000000     0.466350000000     0.0035849  
C35      C      0.362550000000     0.382210000000     0.463210000000    -0.0467645  
C36      C      0.397110000000     0.384130000000     0.507880000000    -0.0560485  
C37      C      0.397780000000     0.350410000000     0.551880000000    -0.0469346  
C38      C      0.364020000000     0.314680000000     0.550840000000     0.0949894  
C39      C      0.329370000000     0.313330000000     0.506870000000    -0.310788   
C40      C      0.328330000000     0.346910000000     0.463260000000     0.0948243  
C41      C      0.380840000000     0.149170000000     0.473170000000     0.00349331 
C42      C      0.341820000000     0.144210000000     0.511330000000    -0.0942831  
C43      C      0.335040000000     0.106410000000     0.549400000000     0.00378012 
C44      C      0.366780000000     0.074910000000     0.550040000000    -0.0117451  
C45      C      0.405230000000     0.079400000000     0.510840000000    -0.0700869  
C46      C      0.411590000000     0.116830000000     0.472070000000    -0.0112492  
C47      C      0.102450000000     0.118860000000     0.461290000000    -0.0460742  
C48      C      0.101450000000     0.086700000000     0.507780000000    -0.055971   
C49      C      0.134270000000     0.090260000000     0.554850000000    -0.045845   
C50      C      0.168460000000     0.125580000000     0.554770000000     0.0943383  
C51      C      0.169110000000     0.157590000000     0.508620000000    -0.308281   
C52      C      0.136150000000     0.154650000000     0.462210000000     0.0945385  
C53      C      0.087770000000     0.354420000000     0.049700000000    -0.0118001  
C54      C      0.094070000000     0.391600000000     0.010440000000    -0.0707518  
C55      C      0.132600000000     0.395960000000     0.971390000000    -0.0107233  
C56      C      0.164340000000     0.364550000000     0.972370000000     0.00412534 
C57      C      0.157580000000     0.326880000000     0.010670000000    -0.0949987  
C58      C      0.118600000000     0.322070000000     0.048950000000     0.00365458 
C59      C      0.362810000000     0.381940000000     0.052050000000    -0.0467396  
C60      C      0.397370000000     0.383870000000     0.007390000000    -0.0565852  
C61      C      0.398040000000     0.350150000000     0.963390000000    -0.0464497  
C62      C      0.364280000000     0.314420000000     0.964440000000     0.0957816  
C63      C      0.329630000000     0.313060000000     0.008410000000    -0.311589   
C64      C      0.328590000000     0.346640000000     0.052010000000     0.0949597  
C65      C      0.411870000000     0.116570000000     0.043200000000    -0.0112557  
C66      C      0.405500000000     0.079140000000     0.004440000000    -0.0706245  
C67      C      0.367040000000     0.074650000000     0.965250000000    -0.0111701  
C68      C      0.335300000000     0.106140000000     0.965900000000     0.00447222 
C69      C      0.342090000000     0.143950000000     0.003960000000    -0.0950038  
C70      C      0.381120000000     0.148920000000     0.042110000000     0.0035279  
C71      C      0.102720000000     0.118580000000     0.054010000000    -0.0461223  
C72      C      0.101720000000     0.086430000000     0.007530000000    -0.0563682  
C73      C      0.134540000000     0.089990000000     0.960450000000    -0.0453701  
C74      C      0.168740000000     0.125310000000     0.960540000000     0.0950705  
C75      C      0.169380000000     0.157310000000     0.006690000000    -0.308953   
C76      C      0.136420000000     0.154370000000     0.053100000000     0.0946485  
C77      C      0.060480000000     0.925280000000     0.009500000000     0.334544   
C78      C      0.438670000000     0.545070000000     0.005370000000     0.334537   
C79      C      0.066010000000     0.549720000000     0.007540000000     0.350649   
C80      C      0.433090000000     0.920570000000     0.007280000000     0.350557   
C81      C      0.060220000000     0.925550000000     0.505780000000     0.335186   
C82      C      0.438400000000     0.545330000000     0.509910000000     0.335174   
C83      C      0.065740000000     0.549990000000     0.507750000000     0.351477   
C84      C      0.432830000000     0.920840000000     0.507990000000     0.351256   
C85      C      0.247720000000     0.737100000000     0.890500000000     0.420076   
C86      C      0.250990000000     0.732820000000     0.124810000000     0.420546   
C87      C      0.308530000000     0.677670000000     0.004530000000     0.394523   
C88      C      0.191010000000     0.793040000000     0.010450000000     0.394257   
C89      C      0.250780000000     0.733020000000     0.390500000000     0.420945   
C90      C      0.247520000000     0.737310000000     0.624810000000     0.420171   
C91      C      0.308260000000     0.677930000000     0.510770000000     0.39441    
C92      C      0.190750000000     0.793310000000     0.504850000000     0.394253   
C93      C      0.213520000000     0.710660000000     0.789810000000     0.00190583 
C94      C      0.247130000000     0.737790000000     0.822570000000    -0.105728   
C95      C      0.280500000000     0.765200000000     0.789800000000     0.00207795 
C96      C      0.280450000000     0.765250000000     0.725500000000     0.00211307 
C97      C      0.247020000000     0.737900000000     0.692740000000    -0.105859   
C98      C      0.213460000000     0.710720000000     0.725510000000     0.00195517 
C99      C      0.221860000000     0.701000000000     0.225500000000     0.00199977 
C100     C      0.251520000000     0.732210000000     0.192740000000    -0.105964   
C101     C      0.281330000000     0.763260000000     0.225510000000     0.00201443 
C102     C      0.281280000000     0.763310000000     0.289790000000     0.00210758 
C103     C      0.251400000000     0.732320000000     0.322570000000    -0.106131   
C104     C      0.221800000000     0.701060000000     0.289820000000     0.00212468 
C105     C      0.087510000000     0.854680000000     0.465600000000    -0.0117845  
C106     C      0.093810000000     0.891870000000     0.504850000000    -0.0702181  
C107     C      0.132340000000     0.896240000000     0.543890000000    -0.0113191  
C108     C      0.164080000000     0.864820000000     0.542910000000     0.00342769 
C109     C      0.157320000000     0.827150000000     0.504630000000    -0.0943031  
C110     C      0.118340000000     0.822340000000     0.466350000000     0.00356696 
C111     C      0.362550000000     0.882200000000     0.463210000000    -0.0468186  
C112     C      0.397110000000     0.884130000000     0.507880000000    -0.0560377  
C113     C      0.397780000000     0.850410000000     0.551880000000    -0.046959   
C114     C      0.364020000000     0.814680000000     0.550840000000     0.0950109  
C115     C      0.329370000000     0.813330000000     0.506870000000    -0.310841   
C116     C      0.328330000000     0.846910000000     0.463270000000     0.0948886  
C117     C      0.380840000000     0.649170000000     0.473170000000     0.00345545 
C118     C      0.341820000000     0.644210000000     0.511330000000    -0.0942353  
C119     C      0.335040000000     0.606410000000     0.549400000000     0.00373618 
C120     C      0.366780000000     0.574910000000     0.550040000000    -0.0117329  
C121     C      0.405230000000     0.579400000000     0.510840000000    -0.0701507  
C122     C      0.411590000000     0.616830000000     0.472070000000    -0.0112282  
C123     C      0.102450000000     0.618860000000     0.461290000000    -0.0460656  
C124     C      0.101450000000     0.586700000000     0.507780000000    -0.0560086  
C125     C      0.134270000000     0.590260000000     0.554860000000    -0.0458989  
C126     C      0.168460000000     0.625580000000     0.554770000000     0.0943357  
C127     C      0.169110000000     0.657590000000     0.508620000000    -0.308252   
C128     C      0.136150000000     0.654650000000     0.462210000000     0.0945158  
C129     C      0.087770000000     0.854420000000     0.049700000000    -0.0118162  
C130     C      0.094070000000     0.891600000000     0.010440000000    -0.0707536  
C131     C      0.132600000000     0.895960000000     0.971390000000    -0.0107398  
C132     C      0.164340000000     0.864550000000     0.972370000000     0.00411441 
C133     C      0.157580000000     0.826880000000     0.010670000000    -0.0950025  
C134     C      0.118600000000     0.822080000000     0.048950000000     0.00367296 
C135     C      0.362810000000     0.881940000000     0.052060000000    -0.0467422  
C136     C      0.397370000000     0.883870000000     0.007390000000    -0.0566269  
C137     C      0.398040000000     0.850150000000     0.963390000000    -0.046383   
C138     C      0.364280000000     0.814420000000     0.964440000000     0.0956775  
C139     C      0.329630000000     0.813060000000     0.008410000000    -0.311384   
C140     C      0.328590000000     0.846640000000     0.052010000000     0.094888   
C141     C      0.411870000000     0.616570000000     0.043200000000    -0.0112453  
C142     C      0.405500000000     0.579140000000     0.004440000000    -0.0706828  
C143     C      0.367040000000     0.574650000000     0.965250000000    -0.0111679  
C144     C      0.335300000000     0.606140000000     0.965900000000     0.00444693 
C145     C      0.342090000000     0.643950000000     0.003960000000    -0.095004   
C146     C      0.381120000000     0.648920000000     0.042110000000     0.00351123 
C147     C      0.102720000000     0.618580000000     0.054010000000    -0.0461118  
C148     C      0.101720000000     0.586430000000     0.007530000000    -0.0564475  
C149     C      0.134540000000     0.589980000000     0.960450000000    -0.045397   
C150     C      0.168740000000     0.625310000000     0.960550000000     0.0950995  
C151     C      0.169380000000     0.657310000000     0.006690000000    -0.308984   
C152     C      0.136420000000     0.654370000000     0.053100000000     0.0946444  
C153     C      0.560480000000     0.425280000000     0.009500000000     0.334585   
C154     C      0.938670000000     0.045070000000     0.005370000000     0.334457   
C155     C      0.566010000000     0.049710000000     0.007540000000     0.350641   
C156     C      0.933090000000     0.420570000000     0.007280000000     0.350586   
C157     C      0.560220000000     0.425550000000     0.505780000000     0.335235   
C158     C      0.938400000000     0.045330000000     0.509910000000     0.335085   
C159     C      0.565740000000     0.049990000000     0.507750000000     0.351452   
C160     C      0.932830000000     0.420840000000     0.507990000000     0.35126    
C161     C      0.747720000000     0.237100000000     0.890500000000     0.419972   
C162     C      0.750990000000     0.232820000000     0.124810000000     0.420532   
C163     C      0.808530000000     0.177670000000     0.004530000000     0.394529   
C164     C      0.691010000000     0.293040000000     0.010450000000     0.394291   
C165     C      0.750780000000     0.233020000000     0.390500000000     0.420954   
C166     C      0.747520000000     0.237310000000     0.624810000000     0.420185   
C167     C      0.808260000000     0.177930000000     0.510770000000     0.394514   
C168     C      0.690760000000     0.293310000000     0.504850000000     0.394333   
C169     C      0.713520000000     0.210660000000     0.789810000000     0.001883   
C170     C      0.747130000000     0.237790000000     0.822570000000    -0.105683   
C171     C      0.780500000000     0.265200000000     0.789800000000     0.00205744 
C172     C      0.780450000000     0.265250000000     0.725500000000     0.00212611 
C173     C      0.747020000000     0.237900000000     0.692740000000    -0.105871   
C174     C      0.713460000000     0.210720000000     0.725510000000     0.00196809 
C175     C      0.721860000000     0.201000000000     0.225500000000     0.00200322 
C176     C      0.751520000000     0.232210000000     0.192740000000    -0.105965   
C177     C      0.781330000000     0.263260000000     0.225510000000     0.00201475 
C178     C      0.781280000000     0.263310000000     0.289790000000     0.00210338 
C179     C      0.751400000000     0.232320000000     0.322570000000    -0.106129   
C180     C      0.721800000000     0.201060000000     0.289820000000     0.0021256  
C181     C      0.587510000000     0.354680000000     0.465600000000    -0.0117776  
C182     C      0.593810000000     0.391870000000     0.504850000000    -0.0702486  
C183     C      0.632340000000     0.396240000000     0.543890000000    -0.0112922  
C184     C      0.664080000000     0.364820000000     0.542910000000     0.00341009 
C185     C      0.657320000000     0.327150000000     0.504630000000    -0.0942645  
C186     C      0.618340000000     0.322340000000     0.466350000000     0.00355047 
C187     C      0.862550000000     0.382210000000     0.463210000000    -0.0468052  
C188     C      0.897110000000     0.384130000000     0.507880000000    -0.0560382  
C189     C      0.897780000000     0.350410000000     0.551880000000    -0.0469551  
C190     C      0.864020000000     0.314680000000     0.550840000000     0.0949844  
C191     C      0.829360000000     0.313330000000     0.506870000000    -0.310901   
C192     C      0.828330000000     0.346910000000     0.463260000000     0.0949006  
C193     C      0.880840000000     0.149170000000     0.473170000000     0.00348669 
C194     C      0.841820000000     0.144210000000     0.511330000000    -0.0942901  
C195     C      0.835040000000     0.106410000000     0.549400000000     0.00377803 
C196     C      0.866780000000     0.074910000000     0.550040000000    -0.0117518  
C197     C      0.905230000000     0.079400000000     0.510840000000    -0.0700906  
C198     C      0.911590000000     0.116830000000     0.472070000000    -0.0112626  
C199     C      0.602450000000     0.118860000000     0.461290000000    -0.0460676  
C200     C      0.601450000000     0.086700000000     0.507780000000    -0.0560146  
C201     C      0.634270000000     0.090260000000     0.554850000000    -0.0458321  
C202     C      0.668460000000     0.125580000000     0.554770000000     0.0943189  
C203     C      0.669110000000     0.157590000000     0.508620000000    -0.308265   
C204     C      0.636150000000     0.154650000000     0.462210000000     0.0945154  
C205     C      0.587770000000     0.354420000000     0.049700000000    -0.0118024  
C206     C      0.594070000000     0.391600000000     0.010440000000    -0.0707839  
C207     C      0.632590000000     0.395960000000     0.971390000000    -0.0106986  
C208     C      0.664340000000     0.364550000000     0.972370000000     0.00410196 
C209     C      0.657580000000     0.326880000000     0.010670000000    -0.0949954  
C210     C      0.618600000000     0.322070000000     0.048950000000     0.00363541 
C211     C      0.862810000000     0.381940000000     0.052050000000    -0.0467318  
C212     C      0.897370000000     0.383870000000     0.007390000000    -0.0566215  
C213     C      0.898040000000     0.350150000000     0.963390000000    -0.0464185  
C214     C      0.864280000000     0.314420000000     0.964440000000     0.0957568  
C215     C      0.829630000000     0.313060000000     0.008410000000    -0.311582   
C216     C      0.828590000000     0.346640000000     0.052010000000     0.0949476  
C217     C      0.911870000000     0.116570000000     0.043200000000    -0.0112946  
C218     C      0.905500000000     0.079140000000     0.004440000000    -0.070624   
C219     C      0.867040000000     0.074650000000     0.965250000000    -0.0111977  
C220     C      0.835310000000     0.106140000000     0.965900000000     0.00450331 
C221     C      0.842090000000     0.143950000000     0.003960000000    -0.0950296  
C222     C      0.881120000000     0.148920000000     0.042110000000     0.00353642 
C223     C      0.602720000000     0.118580000000     0.054010000000    -0.0461247  
C224     C      0.601720000000     0.086430000000     0.007530000000    -0.0563937  
C225     C      0.634540000000     0.089990000000     0.960450000000    -0.0453692  
C226     C      0.668740000000     0.125310000000     0.960540000000     0.0950623  
C227     C      0.669380000000     0.157310000000     0.006690000000    -0.308954   
C228     C      0.636420000000     0.154370000000     0.053100000000     0.0946347  
C229     C      0.560480000000     0.925280000000     0.009500000000     0.334543   
C230     C      0.938670000000     0.545070000000     0.005370000000     0.33453    
C231     C      0.566010000000     0.549720000000     0.007540000000     0.350675   
C232     C      0.933090000000     0.920570000000     0.007280000000     0.350523   
C233     C      0.560220000000     0.925550000000     0.505780000000     0.33521    
C234     C      0.938400000000     0.545330000000     0.509910000000     0.335148   
C235     C      0.565740000000     0.549990000000     0.507750000000     0.351531   
C236     C      0.932830000000     0.920840000000     0.507990000000     0.351212   
C237     C      0.747720000000     0.737100000000     0.890500000000     0.420073   
C238     C      0.750990000000     0.732820000000     0.124810000000     0.420667   
C239     C      0.808530000000     0.677670000000     0.004530000000     0.394526   
C240     C      0.691010000000     0.793040000000     0.010450000000     0.394257   
C241     C      0.750780000000     0.733020000000     0.390500000000     0.420961   
C242     C      0.747520000000     0.737310000000     0.624810000000     0.420179   
C243     C      0.808260000000     0.677930000000     0.510770000000     0.394371   
C244     C      0.690750000000     0.793310000000     0.504850000000     0.394349   
C245     C      0.713520000000     0.710660000000     0.789810000000     0.00189607 
C246     C      0.747130000000     0.737790000000     0.822570000000    -0.105722   
C247     C      0.780500000000     0.765200000000     0.789800000000     0.0020507  
C248     C      0.780450000000     0.765250000000     0.725500000000     0.00212271 
C249     C      0.747020000000     0.737900000000     0.692740000000    -0.105871   
C250     C      0.713460000000     0.710720000000     0.725510000000     0.00195679 
C251     C      0.721860000000     0.701000000000     0.225500000000     0.0019848  
C252     C      0.751520000000     0.732210000000     0.192740000000    -0.105988   
C253     C      0.781340000000     0.763260000000     0.225510000000     0.00198357 
C254     C      0.781280000000     0.763310000000     0.289790000000     0.00212946 
C255     C      0.751400000000     0.732320000000     0.322570000000    -0.106162   
C256     C      0.721810000000     0.701060000000     0.289820000000     0.00216382 
C257     C      0.587510000000     0.854680000000     0.465600000000    -0.0117969  
C258     C      0.593810000000     0.891870000000     0.504850000000    -0.0702487  
C259     C      0.632340000000     0.896240000000     0.543890000000    -0.0113236  
C260     C      0.664080000000     0.864820000000     0.542910000000     0.00343737 
C261     C      0.657320000000     0.827150000000     0.504630000000    -0.0943525  
C262     C      0.618340000000     0.822340000000     0.466350000000     0.00356889 
C263     C      0.862550000000     0.882200000000     0.463210000000    -0.0468271  
C264     C      0.897110000000     0.884130000000     0.507880000000    -0.0560379  
C265     C      0.897780000000     0.850410000000     0.551880000000    -0.0469717  
C266     C      0.864020000000     0.814680000000     0.550840000000     0.0950051  
C267     C      0.829370000000     0.813330000000     0.506870000000    -0.310844   
C268     C      0.828330000000     0.846910000000     0.463270000000     0.0948874  
C269     C      0.880840000000     0.649170000000     0.473170000000     0.00343366 
C270     C      0.841830000000     0.644210000000     0.511330000000    -0.0941818  
C271     C      0.835040000000     0.606410000000     0.549400000000     0.00369676 
C272     C      0.866780000000     0.574910000000     0.550040000000    -0.0117211  
C273     C      0.905230000000     0.579400000000     0.510840000000    -0.0701664  
C274     C      0.911590000000     0.616830000000     0.472070000000    -0.0112298  
C275     C      0.602450000000     0.618860000000     0.461290000000    -0.0460591  
C276     C      0.601450000000     0.586700000000     0.507780000000    -0.0560634  
C277     C      0.634260000000     0.590260000000     0.554860000000    -0.0458557  
C278     C      0.668460000000     0.625580000000     0.554770000000     0.0943048  
C279     C      0.669110000000     0.657590000000     0.508620000000    -0.308273   
C280     C      0.636150000000     0.654650000000     0.462210000000     0.0945038  
C281     C      0.587770000000     0.854420000000     0.049700000000    -0.011823   
C282     C      0.594070000000     0.891600000000     0.010440000000    -0.0707792  
C283     C      0.632600000000     0.895960000000     0.971390000000    -0.0107402  
C284     C      0.664340000000     0.864550000000     0.972370000000     0.0041072  
C285     C      0.657580000000     0.826880000000     0.010670000000    -0.0950079  
C286     C      0.618600000000     0.822080000000     0.048950000000     0.00365817 
C287     C      0.862810000000     0.881940000000     0.052060000000    -0.0467563  
C288     C      0.897370000000     0.883870000000     0.007390000000    -0.0566244  
C289     C      0.898040000000     0.850150000000     0.963390000000    -0.0464274  
C290     C      0.864280000000     0.814420000000     0.964440000000     0.0956872  
C291     C      0.829630000000     0.813060000000     0.008410000000    -0.311398   
C292     C      0.828590000000     0.846640000000     0.052010000000     0.0948932  
C293     C      0.911870000000     0.616570000000     0.043200000000    -0.0112773  
C294     C      0.905500000000     0.579140000000     0.004440000000    -0.0706902  
C295     C      0.867040000000     0.574650000000     0.965250000000    -0.0111724  
C296     C      0.835300000000     0.606140000000     0.965900000000     0.00444508 
C297     C      0.842090000000     0.643950000000     0.003960000000    -0.0950116  
C298     C      0.881120000000     0.648920000000     0.042110000000     0.00351254 
C299     C      0.602720000000     0.618580000000     0.054010000000    -0.0461156  
C300     C      0.601720000000     0.586430000000     0.007530000000    -0.0564757  
C301     C      0.634540000000     0.589980000000     0.960450000000    -0.0453926  
C302     C      0.668740000000     0.625310000000     0.960550000000     0.0950931  
C303     C      0.669380000000     0.657310000000     0.006690000000    -0.308991   
C304     C      0.636420000000     0.654370000000     0.053100000000     0.0946324  
Cu1      Cu     0.500150000000     0.984620000000     0.950210000000     0.842958   
Cu2      Cu     0.998940000000     0.485670000000     0.064620000000     0.842013   
Cu3      Cu     0.498670000000     0.985940000000     0.450660000000     0.842685   
Cu4      Cu     0.999890000000     0.484880000000     0.565070000000     0.842686   
Cu5      Cu     0.283140000000     0.266880000000     0.007770000000     1.14927    
Cu6      Cu     0.215960000000     0.203430000000     0.007470000000     1.14325    
Cu7      Cu     0.282880000000     0.267140000000     0.507520000000     1.14965    
Cu8      Cu     0.215700000000     0.203700000000     0.507840000000     1.14373    
Cu9      Cu     0.500150000000     0.484620000000     0.950210000000     0.843333   
Cu10     Cu     0.998930000000     0.985670000000     0.064620000000     0.841564   
Cu11     Cu     0.498680000000     0.485940000000     0.450660000000     0.843251   
Cu12     Cu     0.999880000000     0.984880000000     0.565070000000     0.842253   
Cu13     Cu     0.283140000000     0.766870000000     0.007770000000     1.149      
Cu14     Cu     0.215960000000     0.703430000000     0.007470000000     1.14323    
Cu15     Cu     0.282880000000     0.767140000000     0.507520000000     1.14967    
Cu16     Cu     0.215700000000     0.703700000000     0.507840000000     1.1436     
Cu17     Cu     0.000150000000     0.984620000000     0.950210000000     0.84365    
Cu18     Cu     0.498930000000     0.485670000000     0.064620000000     0.842567   
Cu19     Cu     0.998680000000     0.985940000000     0.450660000000     0.842372   
Cu20     Cu     0.499880000000     0.484880000000     0.565070000000     0.842996   
Cu21     Cu     0.783140000000     0.266880000000     0.007770000000     1.14927    
Cu22     Cu     0.715960000000     0.203430000000     0.007470000000     1.14325    
Cu23     Cu     0.782880000000     0.267140000000     0.507520000000     1.14978    
Cu24     Cu     0.715700000000     0.203700000000     0.507840000000     1.14369    
Cu25     Cu     0.000150000000     0.484620000000     0.950210000000     0.843964   
Cu26     Cu     0.498930000000     0.985670000000     0.064620000000     0.842125   
Cu27     Cu     0.998670000000     0.485940000000     0.450660000000     0.842876   
Cu28     Cu     0.499880000000     0.984880000000     0.565070000000     0.842576   
Cu29     Cu     0.783140000000     0.766870000000     0.007770000000     1.14902    
Cu30     Cu     0.715960000000     0.703430000000     0.007470000000     1.14324    
Cu31     Cu     0.782880000000     0.767140000000     0.507520000000     1.14966    
Cu32     Cu     0.715700000000     0.703700000000     0.507840000000     1.14372    
H1       H      0.187350000000     0.189140000000     0.813770000000     0.0442035  
H2       H      0.306850000000     0.286500000000     0.813740000000     0.0437776  
H3       H      0.306760000000     0.286600000000     0.701550000000     0.0437134  
H4       H      0.187260000000     0.189240000000     0.701560000000     0.0441416  
H5       H      0.198460000000     0.176660000000     0.201530000000     0.0438876  
H6       H      0.304610000000     0.287730000000     0.201580000000     0.0438063  
H7       H      0.304510000000     0.287830000000     0.313700000000     0.0437898  
H8       H      0.198370000000     0.176750000000     0.313810000000     0.0438701  
H9       H      0.058140000000     0.350110000000     0.435170000000     0.0436216  
H10      H      0.138350000000     0.424440000000     0.574610000000     0.0428995  
H11      H      0.193580000000     0.369580000000     0.573110000000     0.0414673  
H12      H      0.112080000000     0.293870000000     0.436160000000     0.0394164  
H13      H      0.361620000000     0.408240000000     0.429200000000     0.054108   
H14      H      0.424680000000     0.351360000000     0.586190000000     0.0542356  
H15      H      0.364590000000     0.288280000000     0.584200000000     0.0156783  
H16      H      0.300940000000     0.345740000000     0.429820000000     0.0158836  
H17      H      0.387100000000     0.177700000000     0.443080000000     0.0413978  
H18      H      0.305460000000     0.101510000000     0.579440000000     0.039149   
H19      H      0.360700000000     0.046480000000     0.580330000000     0.0434444  
H20      H      0.440870000000     0.121470000000     0.441470000000     0.0427685  
H21      H      0.076880000000     0.116660000000     0.425080000000     0.0526417  
H22      H      0.133890000000     0.065440000000     0.590840000000     0.0526125  
H23      H      0.194540000000     0.127970000000     0.590160000000     0.0147021  
H24      H      0.136870000000     0.179850000000     0.426870000000     0.0146213  
H25      H      0.058400000000     0.349860000000     0.080130000000     0.0435939  
H26      H      0.138600000000     0.424160000000     0.940660000000     0.0428918  
H27      H      0.193830000000     0.369300000000     0.942160000000     0.0414852  
H28      H      0.112350000000     0.293610000000     0.079150000000     0.0393734  
H29      H      0.361880000000     0.407980000000     0.086070000000     0.0540514  
H30      H      0.424930000000     0.351100000000     0.929080000000     0.0542475  
H31      H      0.364840000000     0.288010000000     0.931080000000     0.0156392  
H32      H      0.301200000000     0.345480000000     0.085460000000     0.0158495  
H33      H      0.441150000000     0.121210000000     0.073800000000     0.0427265  
H34      H      0.360960000000     0.046210000000     0.934970000000     0.0434382  
H35      H      0.305720000000     0.101240000000     0.935870000000     0.039136   
H36      H      0.387380000000     0.177440000000     0.072190000000     0.0413426  
H37      H      0.077150000000     0.116380000000     0.090220000000     0.0526319  
H38      H      0.134170000000     0.065180000000     0.924460000000     0.0526005  
H39      H      0.194820000000     0.127710000000     0.925150000000     0.0146388  
H40      H      0.137130000000     0.179560000000     0.088440000000     0.0145832  
H41      H      0.187350000000     0.689140000000     0.813770000000     0.0441862  
H42      H      0.306860000000     0.786500000000     0.813740000000     0.0437542  
H43      H      0.306760000000     0.786600000000     0.701550000000     0.0437114  
H44      H      0.187260000000     0.689240000000     0.701560000000     0.044138   
H45      H      0.198460000000     0.676660000000     0.201530000000     0.0438747  
H46      H      0.304610000000     0.787730000000     0.201580000000     0.0438047  
H47      H      0.304510000000     0.787830000000     0.313710000000     0.0437846  
H48      H      0.198370000000     0.676750000000     0.313810000000     0.0438564  
H49      H      0.058140000000     0.850120000000     0.435170000000     0.0436249  
H50      H      0.138350000000     0.924440000000     0.574610000000     0.0428526  
H51      H      0.193580000000     0.869580000000     0.573110000000     0.041448   
H52      H      0.112080000000     0.793870000000     0.436170000000     0.0394212  
H53      H      0.361620000000     0.908230000000     0.429200000000     0.0540877  
H54      H      0.424680000000     0.851360000000     0.586190000000     0.054234   
H55      H      0.364590000000     0.788280000000     0.584200000000     0.0156692  
H56      H      0.300940000000     0.845740000000     0.429820000000     0.0158563  
H57      H      0.387100000000     0.677700000000     0.443080000000     0.0414021  
H58      H      0.305460000000     0.601510000000     0.579440000000     0.0391368  
H59      H      0.360700000000     0.546480000000     0.580330000000     0.0433811  
H60      H      0.440870000000     0.621470000000     0.441470000000     0.0427472  
H61      H      0.076880000000     0.616660000000     0.425080000000     0.0526206  
H62      H      0.133890000000     0.565450000000     0.590840000000     0.0525893  
H63      H      0.194540000000     0.627970000000     0.590160000000     0.0146872  
H64      H      0.136870000000     0.679850000000     0.426870000000     0.0146238  
H65      H      0.058400000000     0.849850000000     0.080130000000     0.0435898  
H66      H      0.138600000000     0.924160000000     0.940660000000     0.0428475  
H67      H      0.193830000000     0.869300000000     0.942160000000     0.0414668  
H68      H      0.112350000000     0.793610000000     0.079150000000     0.0393633  
H69      H      0.361880000000     0.907980000000     0.086070000000     0.0540218  
H70      H      0.424940000000     0.851100000000     0.929080000000     0.0542171  
H71      H      0.364840000000     0.788010000000     0.931080000000     0.0156676  
H72      H      0.301200000000     0.845480000000     0.085460000000     0.015862   
H73      H      0.441150000000     0.621210000000     0.073800000000     0.042707   
H74      H      0.360960000000     0.546210000000     0.934970000000     0.0433769  
H75      H      0.305720000000     0.601240000000     0.935870000000     0.0391132  
H76      H      0.387380000000     0.677440000000     0.072190000000     0.0413406  
H77      H      0.077150000000     0.616380000000     0.090220000000     0.0526078  
H78      H      0.134170000000     0.565180000000     0.924460000000     0.0525644  
H79      H      0.194820000000     0.627710000000     0.925150000000     0.0146119  
H80      H      0.137130000000     0.679560000000     0.088440000000     0.0145795  
H81      H      0.687350000000     0.189140000000     0.813770000000     0.0441921  
H82      H      0.806860000000     0.286500000000     0.813740000000     0.043761   
H83      H      0.806760000000     0.286600000000     0.701550000000     0.0437108  
H84      H      0.687260000000     0.189240000000     0.701560000000     0.0441322  
H85      H      0.698460000000     0.176660000000     0.201530000000     0.0438805  
H86      H      0.804610000000     0.287730000000     0.201580000000     0.0437996  
H87      H      0.804510000000     0.287830000000     0.313700000000     0.0437828  
H88      H      0.698370000000     0.176750000000     0.313810000000     0.0438627  
H89      H      0.558140000000     0.350110000000     0.435170000000     0.0435745  
H90      H      0.638350000000     0.424440000000     0.574610000000     0.0428852  
H91      H      0.693580000000     0.369580000000     0.573110000000     0.0414725  
H92      H      0.612080000000     0.293870000000     0.436160000000     0.0394043  
H93      H      0.861620000000     0.408240000000     0.429200000000     0.0541189  
H94      H      0.924680000000     0.351360000000     0.586190000000     0.0542081  
H95      H      0.864590000000     0.288280000000     0.584200000000     0.0156681  
H96      H      0.800940000000     0.345740000000     0.429820000000     0.0158664  
H97      H      0.887100000000     0.177700000000     0.443080000000     0.0413808  
H98      H      0.805460000000     0.101510000000     0.579440000000     0.0391455  
H99      H      0.860700000000     0.046480000000     0.580330000000     0.0434405  
H100     H      0.940870000000     0.121470000000     0.441470000000     0.0427352  
H101     H      0.576880000000     0.116660000000     0.425080000000     0.0525986  
H102     H      0.633890000000     0.065440000000     0.590840000000     0.0525976  
H103     H      0.694540000000     0.127970000000     0.590160000000     0.0147034  
H104     H      0.636870000000     0.179850000000     0.426870000000     0.0146133  
H105     H      0.558400000000     0.349860000000     0.080130000000     0.0435485  
H106     H      0.638600000000     0.424160000000     0.940660000000     0.0428783  
H107     H      0.693830000000     0.369300000000     0.942160000000     0.0414868  
H108     H      0.612350000000     0.293610000000     0.079150000000     0.0393561  
H109     H      0.861880000000     0.407980000000     0.086070000000     0.0540442  
H110     H      0.924940000000     0.351100000000     0.929080000000     0.0541974  
H111     H      0.864850000000     0.288010000000     0.931080000000     0.0156311  
H112     H      0.801200000000     0.345480000000     0.085460000000     0.01585    
H113     H      0.941140000000     0.121210000000     0.073800000000     0.042704   
H114     H      0.860960000000     0.046210000000     0.934970000000     0.0434299  
H115     H      0.805720000000     0.101240000000     0.935870000000     0.0391219  
H116     H      0.887380000000     0.177440000000     0.072190000000     0.0413214  
H117     H      0.577150000000     0.116380000000     0.090220000000     0.0525914  
H118     H      0.634170000000     0.065180000000     0.924460000000     0.0525919  
H119     H      0.694820000000     0.127710000000     0.925150000000     0.0146372  
H120     H      0.637130000000     0.179560000000     0.088440000000     0.0145721  
H121     H      0.687350000000     0.689140000000     0.813770000000     0.0441773  
H122     H      0.806850000000     0.786500000000     0.813740000000     0.0437571  
H123     H      0.806760000000     0.786600000000     0.701550000000     0.0437016  
H124     H      0.687260000000     0.689240000000     0.701560000000     0.0441259  
H125     H      0.698460000000     0.676660000000     0.201530000000     0.0438673  
H126     H      0.804610000000     0.787730000000     0.201580000000     0.0438069  
H127     H      0.804510000000     0.787830000000     0.313710000000     0.0437717  
H128     H      0.698370000000     0.676750000000     0.313810000000     0.0438352  
H129     H      0.558140000000     0.850120000000     0.435170000000     0.0435804  
H130     H      0.638350000000     0.924440000000     0.574610000000     0.0428438  
H131     H      0.693580000000     0.869580000000     0.573110000000     0.0414395  
H132     H      0.612080000000     0.793870000000     0.436170000000     0.0393942  
H133     H      0.861620000000     0.908230000000     0.429200000000     0.0540851  
H134     H      0.924680000000     0.851360000000     0.586190000000     0.0542063  
H135     H      0.864590000000     0.788280000000     0.584200000000     0.0156579  
H136     H      0.800940000000     0.845740000000     0.429820000000     0.0158547  
H137     H      0.887100000000     0.677700000000     0.443080000000     0.0413884  
H138     H      0.805460000000     0.601510000000     0.579440000000     0.0391413  
H139     H      0.860700000000     0.546480000000     0.580330000000     0.0433731  
H140     H      0.940870000000     0.621470000000     0.441470000000     0.0427124  
H141     H      0.576880000000     0.616660000000     0.425080000000     0.0525777  
H142     H      0.633890000000     0.565450000000     0.590840000000     0.0525628  
H143     H      0.694540000000     0.627970000000     0.590160000000     0.0146883  
H144     H      0.636870000000     0.679850000000     0.426870000000     0.0146106  
H145     H      0.558400000000     0.849850000000     0.080130000000     0.0435443  
H146     H      0.638600000000     0.924160000000     0.940660000000     0.0428403  
H147     H      0.693830000000     0.869300000000     0.942160000000     0.0414635  
H148     H      0.612350000000     0.793610000000     0.079150000000     0.0393429  
H149     H      0.861880000000     0.907980000000     0.086070000000     0.0540185  
H150     H      0.924930000000     0.851100000000     0.929080000000     0.0542016  
H151     H      0.864840000000     0.788010000000     0.931080000000     0.0156514  
H152     H      0.801200000000     0.845480000000     0.085460000000     0.015858   
H153     H      0.941140000000     0.621210000000     0.073800000000     0.0426828  
H154     H      0.860960000000     0.546210000000     0.934970000000     0.04337    
H155     H      0.805720000000     0.601240000000     0.935870000000     0.0391101  
H156     H      0.887380000000     0.677440000000     0.072190000000     0.0413227  
H157     H      0.577150000000     0.616380000000     0.090220000000     0.0525658  
H158     H      0.634170000000     0.565180000000     0.924460000000     0.0525609  
H159     H      0.694820000000     0.627710000000     0.925150000000     0.01461    
H160     H      0.637130000000     0.679560000000     0.088440000000     0.0145602  
O1       O      0.048090000000     0.440570000000     0.957560000000    -0.371497   
O2       O      0.451980000000     0.028930000000     0.954400000000    -0.369059   
O3       O      0.050200000000     0.034750000000     0.955820000000    -0.391318   
O4       O      0.450340000000     0.434240000000     0.955710000000    -0.391585   
O5       O      0.446830000000     0.437520000000     0.058870000000    -0.391945   
O6       O      0.050810000000     0.034080000000     0.059220000000    -0.391338   
O7       O      0.454000000000     0.032560000000     0.057310000000    -0.371911   
O8       O      0.044150000000     0.438560000000     0.060450000000    -0.36989    
O9       O      0.043890000000     0.438840000000     0.454830000000    -0.369992   
O10      O      0.453740000000     0.032830000000     0.457970000000    -0.372037   
O11      O      0.050550000000     0.034360000000     0.456070000000    -0.391526   
O12      O      0.446580000000     0.437780000000     0.456400000000    -0.392085   
O13      O      0.450080000000     0.434500000000     0.559560000000    -0.392197   
O14      O      0.049930000000     0.035020000000     0.559460000000    -0.391725   
O15      O      0.451710000000     0.029190000000     0.560880000000    -0.369623   
O16      O      0.047820000000     0.440830000000     0.557720000000    -0.371922   
O17      O      0.278810000000     0.260900000000     0.919530000000    -0.4642     
O18      O      0.277270000000     0.261700000000     0.095930000000    -0.465477   
O19      O      0.322510000000     0.218760000000     0.009950000000    -0.438285   
O20      O      0.233700000000     0.305340000000     0.004960000000    -0.440515   
O21      O      0.177030000000     0.251860000000     0.014830000000    -0.436546   
O22      O      0.265740000000     0.165340000000     0.000470000000    -0.438847   
O23      O      0.223920000000     0.204840000000     0.095540000000    -0.46328    
O24      O      0.217410000000     0.212360000000     0.919610000000    -0.462983   
O25      O      0.277040000000     0.261920000000     0.419360000000    -0.465683   
O26      O      0.278590000000     0.261130000000     0.595760000000    -0.464642   
O27      O      0.322240000000     0.219020000000     0.505340000000    -0.438129   
O28      O      0.233440000000     0.305600000000     0.510340000000    -0.440425   
O29      O      0.176770000000     0.252130000000     0.500470000000    -0.436521   
O30      O      0.265470000000     0.165610000000     0.514840000000    -0.438642   
O31      O      0.217190000000     0.212600000000     0.595710000000    -0.463486   
O32      O      0.223700000000     0.205070000000     0.419770000000    -0.463548   
O33      O      0.048090000000     0.940570000000     0.957560000000    -0.371485   
O34      O      0.451980000000     0.528930000000     0.954400000000    -0.369266   
O35      O      0.050200000000     0.534750000000     0.955820000000    -0.391484   
O36      O      0.450340000000     0.934240000000     0.955710000000    -0.391574   
O37      O      0.446830000000     0.937520000000     0.058870000000    -0.391924   
O38      O      0.050810000000     0.534080000000     0.059220000000    -0.391558   
O39      O      0.454000000000     0.532560000000     0.057310000000    -0.372122   
O40      O      0.044150000000     0.938560000000     0.060450000000    -0.369829   
O41      O      0.043890000000     0.938830000000     0.454830000000    -0.369995   
O42      O      0.453740000000     0.532830000000     0.457970000000    -0.37222    
O43      O      0.050550000000     0.534360000000     0.456070000000    -0.391707   
O44      O      0.446570000000     0.937780000000     0.456400000000    -0.392067   
O45      O      0.450080000000     0.934500000000     0.559560000000    -0.392187   
O46      O      0.049930000000     0.535020000000     0.559460000000    -0.391969   
O47      O      0.451710000000     0.529190000000     0.560880000000    -0.369824   
O48      O      0.047820000000     0.940830000000     0.557720000000    -0.371882   
O49      O      0.278810000000     0.760900000000     0.919530000000    -0.464193   
O50      O      0.277270000000     0.761700000000     0.095940000000    -0.465417   
O51      O      0.322510000000     0.718760000000     0.009950000000    -0.438323   
O52      O      0.233700000000     0.805340000000     0.004960000000    -0.440416   
O53      O      0.177030000000     0.751860000000     0.014830000000    -0.436522   
O54      O      0.265740000000     0.665340000000     0.000470000000    -0.438869   
O55      O      0.223920000000     0.704840000000     0.095540000000    -0.463295   
O56      O      0.217410000000     0.712370000000     0.919610000000    -0.463042   
O57      O      0.277040000000     0.761920000000     0.419360000000    -0.465688   
O58      O      0.278590000000     0.761130000000     0.595760000000    -0.464645   
O59      O      0.322240000000     0.719020000000     0.505340000000    -0.438115   
O60      O      0.233440000000     0.805600000000     0.510340000000    -0.440433   
O61      O      0.176770000000     0.752130000000     0.500470000000    -0.436501   
O62      O      0.265470000000     0.665600000000     0.514840000000    -0.438541   
O63      O      0.217190000000     0.712600000000     0.595710000000    -0.463472   
O64      O      0.223700000000     0.705070000000     0.419770000000    -0.46354    
O65      O      0.548090000000     0.440570000000     0.957560000000    -0.371472   
O66      O      0.951990000000     0.028930000000     0.954400000000    -0.36923    
O67      O      0.550200000000     0.034750000000     0.955820000000    -0.391292   
O68      O      0.950340000000     0.434240000000     0.955710000000    -0.391745   
O69      O      0.946830000000     0.437520000000     0.058870000000    -0.391885   
O70      O      0.550810000000     0.034080000000     0.059220000000    -0.391493   
O71      O      0.954000000000     0.032560000000     0.057310000000    -0.371887   
O72      O      0.544150000000     0.438560000000     0.060450000000    -0.369996   
O73      O      0.543890000000     0.438840000000     0.454830000000    -0.370179   
O74      O      0.953740000000     0.032830000000     0.457970000000    -0.371982   
O75      O      0.550550000000     0.034360000000     0.456070000000    -0.391637   
O76      O      0.946570000000     0.437780000000     0.456400000000    -0.392079   
O77      O      0.950080000000     0.434500000000     0.559560000000    -0.392154   
O78      O      0.549930000000     0.035020000000     0.559460000000    -0.391877   
O79      O      0.951710000000     0.029190000000     0.560880000000    -0.369606   
O80      O      0.547820000000     0.440830000000     0.557720000000    -0.37203    
O81      O      0.778810000000     0.260900000000     0.919530000000    -0.464202   
O82      O      0.777270000000     0.261700000000     0.095930000000    -0.465479   
O83      O      0.822510000000     0.218760000000     0.009950000000    -0.438294   
O84      O      0.733700000000     0.305340000000     0.004960000000    -0.440514   
O85      O      0.677030000000     0.251860000000     0.014830000000    -0.436554   
O86      O      0.765740000000     0.165340000000     0.000470000000    -0.438849   
O87      O      0.723920000000     0.204840000000     0.095540000000    -0.463281   
O88      O      0.717410000000     0.212360000000     0.919610000000    -0.462988   
O89      O      0.777040000000     0.261920000000     0.419360000000    -0.465703   
O90      O      0.778590000000     0.261130000000     0.595760000000    -0.464657   
O91      O      0.822240000000     0.219020000000     0.505340000000    -0.438155   
O92      O      0.733440000000     0.305600000000     0.510340000000    -0.440529   
O93      O      0.676770000000     0.252130000000     0.500470000000    -0.436536   
O94      O      0.765470000000     0.165610000000     0.514840000000    -0.438641   
O95      O      0.717190000000     0.212600000000     0.595710000000    -0.463488   
O96      O      0.723700000000     0.205070000000     0.419770000000    -0.463548   
O97      O      0.548090000000     0.940570000000     0.957560000000    -0.371468   
O98      O      0.951980000000     0.528930000000     0.954400000000    -0.369404   
O99      O      0.550210000000     0.534750000000     0.955820000000    -0.391448   
O100     O      0.950350000000     0.934240000000     0.955710000000    -0.391749   
O101     O      0.946830000000     0.937520000000     0.058870000000    -0.39189    
O102     O      0.550810000000     0.534080000000     0.059220000000    -0.391682   
O103     O      0.954000000000     0.532560000000     0.057310000000    -0.372064   
O104     O      0.544150000000     0.938560000000     0.060450000000    -0.36998    
O105     O      0.543890000000     0.938830000000     0.454830000000    -0.370102   
O106     O      0.953740000000     0.532830000000     0.457970000000    -0.372236   
O107     O      0.550550000000     0.534360000000     0.456070000000    -0.391912   
O108     O      0.946570000000     0.937780000000     0.456400000000    -0.392004   
O109     O      0.950080000000     0.934500000000     0.559560000000    -0.392163   
O110     O      0.549930000000     0.535020000000     0.559460000000    -0.392093   
O111     O      0.951710000000     0.529190000000     0.560880000000    -0.369776   
O112     O      0.547820000000     0.940830000000     0.557720000000    -0.372024   
O113     O      0.778810000000     0.760900000000     0.919530000000    -0.464198   
O114     O      0.777270000000     0.761700000000     0.095940000000    -0.465451   
O115     O      0.822510000000     0.718760000000     0.009950000000    -0.43833    
O116     O      0.733700000000     0.805340000000     0.004960000000    -0.440419   
O117     O      0.677030000000     0.751860000000     0.014830000000    -0.436539   
O118     O      0.765740000000     0.665340000000     0.000470000000    -0.438864   
O119     O      0.723930000000     0.704840000000     0.095540000000    -0.463366   
O120     O      0.717410000000     0.712370000000     0.919610000000    -0.463048   
O121     O      0.777040000000     0.761920000000     0.419360000000    -0.465693   
O122     O      0.778590000000     0.761130000000     0.595760000000    -0.464649   
O123     O      0.822240000000     0.719020000000     0.505340000000    -0.438114   
O124     O      0.733440000000     0.805600000000     0.510340000000    -0.440448   
O125     O      0.676780000000     0.752130000000     0.500470000000    -0.436619   
O126     O      0.765470000000     0.665600000000     0.514840000000    -0.43855    
O127     O      0.717190000000     0.712600000000     0.595710000000    -0.46349    
O128     O      0.723700000000     0.705070000000     0.419770000000    -0.463556   


