data_structure

_audit_creation_method RASPA-1.0
_audit_creation_date 2023-5-22
_audit_author_name 'Poobodin Mano'

_cell_length_a    40.9477
_cell_length_b    43.9893
_cell_length_c    44.16
_cell_angle_alpha 89.9998
_cell_angle_beta  89.999
_cell_angle_gamma 90.0049
_cell_volume      79543.7

_symmetry_cell_setting          triclinic
_symmetry_space_group_name_Hall 'P 1'
_symmetry_space_group_name_H-M  'P 1'
_symmetry_Int_Tables_number     1

_symmetry_equiv_pos_as_xyz 'x,y,z'

loop_
_atom_site_label
_atom_site_type_symbol
_atom_site_fract_x
_atom_site_fract_y
_atom_site_fract_z
_atom_site_charge
C1       C      0.979010000000     0.250340000000     0.438540000000     0.354918   
C2       C      0.979010000000     0.250340000000     0.058190000000     0.354553   
C3       C      0.979010000000     0.189900000000     0.998370000000     0.347348   
C4       C      0.979010000000     0.310780000000     0.498370000000     0.347584   
C5       C      0.479010000000     0.250340000000     0.308200000000     0.355049   
C6       C      0.479010000000     0.250340000000     0.188540000000     0.35519    
C7       C      0.479010000000     0.310780000000     0.248370000000     0.347768   
C8       C      0.479010000000     0.189900000000     0.248370000000     0.347915   
C9       C      0.479010000000     0.442460000000     0.498400000000     0.420377   
C10      C      0.979010000000     0.058220000000     0.498400000000     0.418229   
C11      C      0.479010000000     0.000340000000     0.439890000000     0.383141   
C12      C      0.979010000000     0.000340000000     0.056930000000     0.382684   
C13      C      0.479010000000     0.442460000000     0.248410000000     0.420097   
C14      C      0.979010000000     0.058220000000     0.248400000000     0.418249   
C15      C      0.479010000000     0.500340000000     0.189890000000     0.398377   
C16      C      0.979010000000     0.500340000000     0.306930000000     0.398246   
C17      C      0.229010000000     0.000340000000     0.058260000000     0.344113   
C18      C      0.229010000000     0.000340000000     0.438610000000     0.344667   
C19      C      0.293870000000     0.000340000000     0.498430000000     0.329238   
C20      C      0.164150000000     0.000340000000     0.998430000000     0.329665   
C21      C      0.229010000000     0.000340000000     0.308260000000     0.344567   
C22      C      0.229010000000     0.000340000000     0.188610000000     0.344738   
C23      C      0.293870000000     0.000340000000     0.248430000000     0.329224   
C24      C      0.164150000000     0.000340000000     0.248430000000     0.329334   
C25      C      0.229000000000     0.472790000000     0.389200000000    -0.00419602 
C26      C      0.229010000000     0.000340000000     0.405270000000    -0.0933843  
C27      C      0.229020000000     0.027890000000     0.389200000000    -0.00384623 
C28      C      0.229010000000     0.027890000000     0.357660000000    -0.00379657 
C29      C      0.229010000000     0.000340000000     0.341590000000    -0.0934714  
C30      C      0.229010000000     0.472790000000     0.357660000000    -0.00414652 
C31      C      0.229000000000     0.027890000000     0.107660000000    -0.0038692  
C32      C      0.229010000000     0.000340000000     0.091590000000    -0.0927632  
C33      C      0.229010000000     0.472790000000     0.107660000000    -0.00421746 
C34      C      0.229000000000     0.472790000000     0.139200000000    -0.00394691 
C35      C      0.229010000000     0.000340000000     0.155270000000    -0.0933753  
C36      C      0.229020000000     0.027890000000     0.139200000000    -0.00359638 
C37      C      0.076530000000     0.476090000000     0.261310000000     0.0782319  
C38      C      0.059360000000     0.000340000000     0.248410000000    -0.287049   
C39      C      0.076540000000     0.024590000000     0.235530000000     0.0786515  
C40      C      0.110670000000     0.024810000000     0.235800000000    -0.0450972  
C41      C      0.128080000000     0.000340000000     0.248430000000    -0.0604175  
C42      C      0.110660000000     0.475880000000     0.261050000000    -0.0452525  
C43      C      0.381480000000     0.476080000000     0.235530000000     0.0781083  
C44      C      0.398660000000     0.500340000000     0.248420000000    -0.279152   
C45      C      0.381490000000     0.024590000000     0.261310000000     0.0785414  
C46      C      0.347350000000     0.024800000000     0.261050000000    -0.0450456  
C47      C      0.329940000000     0.500340000000     0.248430000000    -0.0522675  
C48      C      0.347340000000     0.475870000000     0.235800000000    -0.0452573  
C49      C      0.076530000000     0.476090000000     0.011310000000     0.0813119  
C50      C      0.059360000000     0.000340000000     0.998420000000    -0.289856   
C51      C      0.076540000000     0.024590000000     0.485530000000     0.0785786  
C52      C      0.110670000000     0.024810000000     0.485800000000    -0.0451297  
C53      C      0.128080000000     0.000340000000     0.998430000000    -0.0640194  
C54      C      0.110660000000     0.475870000000     0.011050000000    -0.0417036  
C55      C      0.347350000000     0.024800000000     0.011050000000    -0.041377   
C56      C      0.329940000000     0.000340000000     0.498430000000    -0.0605372  
C57      C      0.347340000000     0.475870000000     0.485800000000    -0.0452019  
C58      C      0.381480000000     0.476080000000     0.485530000000     0.0780331  
C59      C      0.398660000000     0.500340000000     0.498420000000    -0.279143   
C60      C      0.381490000000     0.024590000000     0.011310000000     0.0815194  
C61      C      0.008490000000     0.500350000000     0.389350000000    -0.00189211 
C62      C      0.479010000000     0.000340000000     0.405840000000    -0.0902705  
C63      C      0.449530000000     0.000330000000     0.389350000000    -0.00440003 
C64      C      0.449530000000     0.000350000000     0.357480000000    -0.00377555 
C65      C      0.979010000000     0.500340000000     0.340980000000    -0.0931849  
C66      C      0.008490000000     0.500330000000     0.357470000000    -0.00187069 
C67      C      0.449530000000     0.000350000000     0.107470000000    -0.00379833 
C68      C      0.979010000000     0.000340000000     0.090980000000    -0.0897489  
C69      C      0.008490000000     0.500330000000     0.107470000000    -0.00189567 
C70      C      0.008490000000     0.500350000000     0.139350000000    -0.00163928 
C71      C      0.479010000000     0.500340000000     0.155840000000    -0.0929726  
C72      C      0.449530000000     0.000320000000     0.139350000000    -0.0041464  
C73      C      0.949440000000     0.360750000000     0.248570000000    -0.0123062  
C74      C      0.479010000000     0.344480000000     0.248380000000    -0.0763547  
C75      C      0.508570000000     0.360750000000     0.248200000000    -0.0122688  
C76      C      0.508570000000     0.392530000000     0.248200000000     0.00880016 
C77      C      0.479010000000     0.408780000000     0.248400000000    -0.109031   
C78      C      0.949440000000     0.392520000000     0.248580000000     0.00883325 
C79      C      0.508570000000     0.139930000000     0.248560000000    -0.0121857  
C80      C      0.979010000000     0.156200000000     0.248370000000    -0.0766063  
C81      C      0.949450000000     0.139920000000     0.248190000000    -0.0121734  
C82      C      0.949450000000     0.108150000000     0.248200000000     0.00856713 
C83      C      0.979010000000     0.091890000000     0.248390000000    -0.10886    
C84      C      0.508570000000     0.108160000000     0.248580000000     0.00856017 
C85      C      0.449410000000     0.250330000000     0.389140000000    -0.00382631 
C86      C      0.479010000000     0.250340000000     0.405210000000    -0.0849458  
C87      C      0.008610000000     0.250340000000     0.389130000000    -0.00365229 
C88      C      0.008610000000     0.250340000000     0.357600000000    -0.00359231 
C89      C      0.479010000000     0.250340000000     0.341520000000    -0.0850552  
C90      C      0.449410000000     0.250330000000     0.357600000000    -0.0037717  
C91      C      0.008610000000     0.250340000000     0.107600000000    -0.00364787 
C92      C      0.479010000000     0.250340000000     0.091520000000    -0.0841943  
C93      C      0.449410000000     0.250340000000     0.107600000000    -0.00384716 
C94      C      0.449410000000     0.250340000000     0.139130000000    -0.00351568 
C95      C      0.479010000000     0.250340000000     0.155210000000    -0.084946   
C96      C      0.008610000000     0.250340000000     0.139130000000    -0.00335691 
C97      C      0.449440000000     0.392520000000     0.498580000000     0.00876035 
C98      C      0.479010000000     0.408780000000     0.498390000000    -0.109193   
C99      C      0.008570000000     0.392530000000     0.998190000000     0.00883852 
C100     C      0.008570000000     0.360760000000     0.998190000000    -0.0124417  
C101     C      0.479010000000     0.344480000000     0.498370000000    -0.0763729  
C102     C      0.449450000000     0.360750000000     0.498560000000    -0.0122941  
C103     C      0.008570000000     0.139930000000     0.498570000000    -0.0120354  
C104     C      0.979010000000     0.156200000000     0.498380000000    -0.0766425  
C105     C      0.449450000000     0.139920000000     0.998200000000    -0.0124733  
C106     C      0.449450000000     0.108150000000     0.998200000000     0.00832366 
C107     C      0.979010000000     0.091890000000     0.498400000000    -0.108886   
C108     C      0.008570000000     0.108160000000     0.498580000000     0.00869908 
C109     C      0.479010000000     0.250340000000     0.438540000000     0.355114   
C110     C      0.479010000000     0.250340000000     0.058190000000     0.354745   
C111     C      0.479010000000     0.189900000000     0.998370000000     0.347544   
C112     C      0.479010000000     0.310780000000     0.498370000000     0.347772   
C113     C      0.979010000000     0.250340000000     0.308200000000     0.354853   
C114     C      0.979010000000     0.250340000000     0.188540000000     0.35499    
C115     C      0.979010000000     0.310780000000     0.248370000000     0.34755    
C116     C      0.979010000000     0.189900000000     0.248370000000     0.34772    
C117     C      0.979010000000     0.442460000000     0.498400000000     0.420161   
C118     C      0.479010000000     0.058220000000     0.498400000000     0.418435   
C119     C      0.979010000000     0.000340000000     0.439890000000     0.38294    
C120     C      0.479010000000     0.000340000000     0.056930000000     0.382885   
C121     C      0.979010000000     0.442460000000     0.248410000000     0.420187   
C122     C      0.479010000000     0.058220000000     0.248400000000     0.418455   
C123     C      0.979010000000     0.500340000000     0.189890000000     0.398172   
C124     C      0.479010000000     0.500340000000     0.306930000000     0.39845    
C125     C      0.729010000000     0.000340000000     0.058260000000     0.344114   
C126     C      0.729010000000     0.000340000000     0.438610000000     0.344667   
C127     C      0.793870000000     0.000340000000     0.498430000000     0.329242   
C128     C      0.664150000000     0.000340000000     0.998430000000     0.329639   
C129     C      0.729010000000     0.000340000000     0.308260000000     0.344567   
C130     C      0.729010000000     0.000340000000     0.188610000000     0.344738   
C131     C      0.793870000000     0.000340000000     0.248430000000     0.329228   
C132     C      0.664150000000     0.000340000000     0.248430000000     0.329335   
C133     C      0.729000000000     0.472790000000     0.389200000000    -0.0041957  
C134     C      0.729010000000     0.000340000000     0.405270000000    -0.0933834  
C135     C      0.729020000000     0.027890000000     0.389200000000    -0.00384578 
C136     C      0.729010000000     0.027890000000     0.357660000000    -0.00379574 
C137     C      0.729010000000     0.000340000000     0.341590000000    -0.0934707  
C138     C      0.729010000000     0.472790000000     0.357660000000    -0.00414567 
C139     C      0.729000000000     0.027890000000     0.107660000000    -0.00386859 
C140     C      0.729010000000     0.000340000000     0.091590000000    -0.0927627  
C141     C      0.729010000000     0.472790000000     0.107660000000    -0.00421683 
C142     C      0.729000000000     0.472790000000     0.139200000000    -0.00394648 
C143     C      0.729010000000     0.000340000000     0.155270000000    -0.0933745  
C144     C      0.729020000000     0.027890000000     0.139200000000    -0.00359588 
C145     C      0.576530000000     0.476090000000     0.261310000000     0.0782845  
C146     C      0.559360000000     0.000340000000     0.248410000000    -0.287029   
C147     C      0.576540000000     0.024590000000     0.235530000000     0.0786433  
C148     C      0.610670000000     0.024810000000     0.235800000000    -0.0450962  
C149     C      0.628080000000     0.000340000000     0.248430000000    -0.0604203  
C150     C      0.610660000000     0.475880000000     0.261050000000    -0.0452929  
C151     C      0.881480000000     0.476080000000     0.235530000000     0.0780915  
C152     C      0.898660000000     0.500340000000     0.248420000000    -0.279125   
C153     C      0.881490000000     0.024590000000     0.261310000000     0.0785179  
C154     C      0.847350000000     0.024800000000     0.261050000000    -0.0450333  
C155     C      0.829940000000     0.500340000000     0.248430000000    -0.0522799  
C156     C      0.847340000000     0.475870000000     0.235800000000    -0.0452458  
C157     C      0.576530000000     0.476090000000     0.011310000000     0.0813068  
C158     C      0.559360000000     0.000340000000     0.998420000000    -0.28984    
C159     C      0.576540000000     0.024590000000     0.485530000000     0.0785704  
C160     C      0.610670000000     0.024810000000     0.485800000000    -0.0451288  
C161     C      0.628080000000     0.000340000000     0.998430000000    -0.0640118  
C162     C      0.610660000000     0.475870000000     0.011050000000    -0.0417078  
C163     C      0.847350000000     0.024800000000     0.011040000000    -0.0413071  
C164     C      0.829940000000     0.000340000000     0.498430000000    -0.0605442  
C165     C      0.847340000000     0.475870000000     0.485800000000    -0.0451866  
C166     C      0.881480000000     0.476080000000     0.485530000000     0.0780109  
C167     C      0.898660000000     0.500340000000     0.498420000000    -0.279098   
C168     C      0.881490000000     0.024590000000     0.011310000000     0.0814628  
C169     C      0.508490000000     0.500350000000     0.389350000000    -0.00206985 
C170     C      0.979010000000     0.000340000000     0.405840000000    -0.0904331  
C171     C      0.949530000000     0.000330000000     0.389350000000    -0.00439501 
C172     C      0.949530000000     0.000350000000     0.357480000000    -0.00377057 
C173     C      0.479010000000     0.500340000000     0.340980000000    -0.0930209  
C174     C      0.508490000000     0.500330000000     0.357470000000    -0.00204976 
C175     C      0.949530000000     0.000350000000     0.107470000000    -0.00379335 
C176     C      0.479010000000     0.000340000000     0.090980000000    -0.0895863  
C177     C      0.508490000000     0.500330000000     0.107470000000    -0.00207407 
C178     C      0.508490000000     0.500350000000     0.139350000000    -0.0018177  
C179     C      0.979010000000     0.500340000000     0.155840000000    -0.0931359  
C180     C      0.949530000000     0.000320000000     0.139350000000    -0.00414155 
C181     C      0.449450000000     0.360750000000     0.248570000000    -0.0121942  
C182     C      0.979010000000     0.344480000000     0.248380000000    -0.0764547  
C183     C      0.008570000000     0.360750000000     0.248200000000    -0.0121409  
C184     C      0.008570000000     0.392530000000     0.248200000000     0.0090527  
C185     C      0.979010000000     0.408780000000     0.248400000000    -0.109338   
C186     C      0.449440000000     0.392520000000     0.248580000000     0.00871824 
C187     C      0.008570000000     0.139930000000     0.248560000000    -0.0120003  
C188     C      0.479010000000     0.156200000000     0.248370000000    -0.0764393  
C189     C      0.449450000000     0.139920000000     0.248190000000    -0.0121818  
C190     C      0.449450000000     0.108150000000     0.248200000000     0.0085624  
C191     C      0.479010000000     0.091890000000     0.248390000000    -0.1087     
C192     C      0.008570000000     0.108150000000     0.248580000000     0.00873382 
C193     C      0.949410000000     0.250330000000     0.389140000000    -0.00381924 
C194     C      0.979010000000     0.250340000000     0.405210000000    -0.0851097  
C195     C      0.508610000000     0.250340000000     0.389130000000    -0.00383095 
C196     C      0.508610000000     0.250340000000     0.357600000000    -0.00377088 
C197     C      0.979010000000     0.250340000000     0.341520000000    -0.085219   
C198     C      0.949410000000     0.250330000000     0.357600000000    -0.00376472 
C199     C      0.508610000000     0.250340000000     0.107600000000    -0.00384502 
C200     C      0.979010000000     0.250340000000     0.091520000000    -0.084371   
C201     C      0.949410000000     0.250340000000     0.107600000000    -0.00382947 
C202     C      0.949410000000     0.250340000000     0.139130000000    -0.00352765 
C203     C      0.979010000000     0.250340000000     0.155210000000    -0.0850964  
C204     C      0.508610000000     0.250340000000     0.139130000000    -0.00352454 
C205     C      0.949440000000     0.392520000000     0.498580000000     0.0087393  
C206     C      0.979010000000     0.408780000000     0.498390000000    -0.10934    
C207     C      0.508570000000     0.392530000000     0.998190000000     0.00862551 
C208     C      0.508570000000     0.360760000000     0.998190000000    -0.0125883  
C209     C      0.979010000000     0.344480000000     0.498370000000    -0.0765595  
C210     C      0.949450000000     0.360750000000     0.498560000000    -0.0122363  
C211     C      0.508570000000     0.139930000000     0.498570000000    -0.0122153  
C212     C      0.479010000000     0.156200000000     0.498380000000    -0.0764775  
C213     C      0.949450000000     0.139920000000     0.998200000000    -0.0124661  
C214     C      0.949450000000     0.108150000000     0.998200000000     0.00832859 
C215     C      0.479010000000     0.091890000000     0.498400000000    -0.108725   
C216     C      0.508570000000     0.108160000000     0.498580000000     0.00852206 
C217     C      0.979010000000     0.250340000000     0.938540000000     0.354666   
C218     C      0.979010000000     0.250340000000     0.558200000000     0.354861   
C219     C      0.979010000000     0.189900000000     0.498370000000     0.347681   
C220     C      0.979010000000     0.310780000000     0.998370000000     0.347228   
C221     C      0.479010000000     0.250340000000     0.808200000000     0.355062   
C222     C      0.479010000000     0.250340000000     0.688540000000     0.355119   
C223     C      0.479010000000     0.310780000000     0.748370000000     0.347778   
C224     C      0.479010000000     0.189900000000     0.748370000000     0.347882   
C225     C      0.479010000000     0.442460000000     0.998400000000     0.420022   
C226     C      0.979010000000     0.058220000000     0.998400000000     0.417886   
C227     C      0.479010000000     0.000340000000     0.939890000000     0.382926   
C228     C      0.979010000000     0.000340000000     0.556930000000     0.383075   
C229     C      0.479010000000     0.442460000000     0.748410000000     0.420383   
C230     C      0.979010000000     0.058220000000     0.748400000000     0.418236   
C231     C      0.479010000000     0.500340000000     0.689890000000     0.39832    
C232     C      0.979010000000     0.500340000000     0.806930000000     0.398259   
C233     C      0.229010000000     0.000340000000     0.558260000000     0.344566   
C234     C      0.229010000000     0.000340000000     0.938610000000     0.344509   
C235     C      0.293870000000     0.000340000000     0.998430000000     0.329817   
C236     C      0.164150000000     0.000340000000     0.498430000000     0.329088   
C237     C      0.229010000000     0.000340000000     0.808260000000     0.344574   
C238     C      0.229010000000     0.000340000000     0.688610000000     0.344676   
C239     C      0.293870000000     0.000340000000     0.748430000000     0.32922    
C240     C      0.164150000000     0.000340000000     0.748430000000     0.329328   
C241     C      0.229000000000     0.472790000000     0.889200000000    -0.00422463 
C242     C      0.229010000000     0.000340000000     0.905270000000    -0.0933559  
C243     C      0.229020000000     0.027890000000     0.889200000000    -0.00387554 
C244     C      0.229010000000     0.027890000000     0.857660000000    -0.00380077 
C245     C      0.229010000000     0.000340000000     0.841590000000    -0.0934777  
C246     C      0.229010000000     0.472790000000     0.857660000000    -0.00415112 
C247     C      0.229000000000     0.027890000000     0.607660000000    -0.00378616 
C248     C      0.229010000000     0.000340000000     0.591590000000    -0.0934712  
C249     C      0.229010000000     0.472790000000     0.607660000000    -0.00413576 
C250     C      0.229000000000     0.472790000000     0.639200000000    -0.00419204 
C251     C      0.229010000000     0.000340000000     0.655270000000    -0.0933769  
C252     C      0.229020000000     0.027890000000     0.639200000000    -0.00384089 
C253     C      0.076530000000     0.476090000000     0.761310000000     0.0783107  
C254     C      0.059360000000     0.000340000000     0.748420000000    -0.287066   
C255     C      0.076540000000     0.024590000000     0.735530000000     0.0785763  
C256     C      0.110670000000     0.024810000000     0.735800000000    -0.0450965  
C257     C      0.128080000000     0.000340000000     0.748430000000    -0.0604548  
C258     C      0.110660000000     0.475870000000     0.761050000000    -0.0453627  
C259     C      0.381480000000     0.476090000000     0.735530000000     0.0781938  
C260     C      0.398660000000     0.500340000000     0.748420000000    -0.279251   
C261     C      0.381490000000     0.024590000000     0.761310000000     0.0785163  
C262     C      0.347350000000     0.024800000000     0.761050000000    -0.0450484  
C263     C      0.329940000000     0.500330000000     0.748430000000    -0.052291   
C264     C      0.347340000000     0.475870000000     0.735800000000    -0.0453216  
C265     C      0.076530000000     0.476090000000     0.511310000000     0.0783092  
C266     C      0.059360000000     0.000340000000     0.498420000000    -0.287068   
C267     C      0.076540000000     0.024590000000     0.985530000000     0.078613   
C268     C      0.110670000000     0.024810000000     0.985800000000    -0.0446248  
C269     C      0.128080000000     0.000340000000     0.498430000000    -0.0603925  
C270     C      0.110660000000     0.475870000000     0.511050000000    -0.0453664  
C271     C      0.347350000000     0.024800000000     0.511040000000    -0.0449105  
C272     C      0.329940000000     0.000340000000     0.998430000000    -0.064175   
C273     C      0.347340000000     0.475870000000     0.985800000000    -0.0446816  
C274     C      0.381480000000     0.476080000000     0.985530000000     0.0780626  
C275     C      0.398660000000     0.500340000000     0.998420000000    -0.281961   
C276     C      0.381490000000     0.024590000000     0.511310000000     0.0784184  
C277     C      0.008490000000     0.500350000000     0.889350000000    -0.00192768 
C278     C      0.479010000000     0.000340000000     0.905840000000    -0.0901826  
C279     C      0.449530000000     0.000330000000     0.889350000000    -0.00443039 
C280     C      0.449530000000     0.000350000000     0.857480000000    -0.00375887 
C281     C      0.979010000000     0.500340000000     0.840980000000    -0.0931841  
C282     C      0.008490000000     0.500330000000     0.857470000000    -0.00185109 
C283     C      0.449530000000     0.000350000000     0.607480000000    -0.00376738 
C284     C      0.979010000000     0.000340000000     0.590980000000    -0.0904472  
C285     C      0.008490000000     0.500330000000     0.607470000000    -0.00186246 
C286     C      0.008490000000     0.500350000000     0.639350000000    -0.00188167 
C287     C      0.479010000000     0.500340000000     0.655840000000    -0.0929797  
C288     C      0.449530000000     0.000320000000     0.639350000000    -0.00439056 
C289     C      0.949440000000     0.360750000000     0.748570000000    -0.0123198  
C290     C      0.479010000000     0.344480000000     0.748380000000    -0.076369   
C291     C      0.508570000000     0.360760000000     0.748200000000    -0.0123238  
C292     C      0.508570000000     0.392530000000     0.748200000000     0.00883294 
C293     C      0.479010000000     0.408780000000     0.748400000000    -0.109187   
C294     C      0.949440000000     0.392520000000     0.748580000000     0.00879401 
C295     C      0.508570000000     0.139930000000     0.748560000000    -0.0122046  
C296     C      0.979010000000     0.156200000000     0.748370000000    -0.0766425  
C297     C      0.949450000000     0.139920000000     0.748190000000    -0.0122008  
C298     C      0.949450000000     0.108150000000     0.748200000000     0.00853432 
C299     C      0.979010000000     0.091890000000     0.748390000000    -0.108881   
C300     C      0.508570000000     0.108150000000     0.748580000000     0.00852182 
C301     C      0.449410000000     0.250330000000     0.889140000000    -0.00385156 
C302     C      0.479010000000     0.250340000000     0.905210000000    -0.0848982  
C303     C      0.008610000000     0.250340000000     0.889130000000    -0.00371601 
C304     C      0.008610000000     0.250340000000     0.857600000000    -0.00359436 
C305     C      0.479010000000     0.250330000000     0.841520000000    -0.0850644  
C306     C      0.449410000000     0.250330000000     0.857600000000    -0.00376682 
C307     C      0.008610000000     0.250340000000     0.607600000000    -0.00358142 
C308     C      0.479010000000     0.250340000000     0.591520000000    -0.0850557  
C309     C      0.449410000000     0.250340000000     0.607600000000    -0.00376126 
C310     C      0.449410000000     0.250340000000     0.639140000000    -0.00382271 
C311     C      0.479010000000     0.250340000000     0.655210000000    -0.0849359  
C312     C      0.008610000000     0.250340000000     0.639130000000    -0.00364828 
C313     C      0.449440000000     0.392520000000     0.998580000000     0.00855668 
C314     C      0.479010000000     0.408780000000     0.998390000000    -0.109499   
C315     C      0.008570000000     0.392530000000     0.498190000000     0.00899703 
C316     C      0.008570000000     0.360760000000     0.498190000000    -0.0121371  
C317     C      0.479010000000     0.344480000000     0.998370000000    -0.0766222  
C318     C      0.449450000000     0.360750000000     0.998560000000    -0.0125174  
C319     C      0.008570000000     0.139930000000     0.998570000000    -0.0122594  
C320     C      0.979010000000     0.156200000000     0.998380000000    -0.0768906  
C321     C      0.449450000000     0.139920000000     0.498200000000    -0.0122132  
C322     C      0.449450000000     0.108150000000     0.498200000000     0.0085261  
C323     C      0.979010000000     0.091890000000     0.998390000000    -0.109195   
C324     C      0.008570000000     0.108160000000     0.998580000000     0.00849705 
C325     C      0.479010000000     0.250340000000     0.938540000000     0.354947   
C326     C      0.479010000000     0.250340000000     0.558200000000     0.355057   
C327     C      0.479010000000     0.189900000000     0.498370000000     0.347877   
C328     C      0.479010000000     0.310780000000     0.998370000000     0.347438   
C329     C      0.979010000000     0.250340000000     0.808190000000     0.354994   
C330     C      0.979010000000     0.250340000000     0.688540000000     0.354923   
C331     C      0.979010000000     0.310780000000     0.748370000000     0.347575   
C332     C      0.979010000000     0.189900000000     0.748370000000     0.347684   
C333     C      0.979010000000     0.442460000000     0.998400000000     0.419839   
C334     C      0.479010000000     0.058220000000     0.998400000000     0.418091   
C335     C      0.979010000000     0.000340000000     0.939890000000     0.382724   
C336     C      0.479010000000     0.000340000000     0.556930000000     0.383277   
C337     C      0.979010000000     0.442460000000     0.748400000000     0.420174   
C338     C      0.479010000000     0.058220000000     0.748400000000     0.418437   
C339     C      0.979010000000     0.500340000000     0.689890000000     0.398109   
C340     C      0.479010000000     0.500340000000     0.806930000000     0.398466   
C341     C      0.729010000000     0.000340000000     0.558260000000     0.344566   
C342     C      0.729010000000     0.000340000000     0.938610000000     0.344509   
C343     C      0.793870000000     0.000340000000     0.998430000000     0.329855   
C344     C      0.664150000000     0.000340000000     0.498430000000     0.329088   
C345     C      0.729010000000     0.000340000000     0.808260000000     0.344574   
C346     C      0.729010000000     0.000340000000     0.688610000000     0.344677   
C347     C      0.793870000000     0.000340000000     0.748430000000     0.329222   
C348     C      0.664150000000     0.000340000000     0.748430000000     0.329329   
C349     C      0.729000000000     0.472790000000     0.889200000000    -0.00422427 
C350     C      0.729010000000     0.000340000000     0.905270000000    -0.0933547  
C351     C      0.729020000000     0.027890000000     0.889200000000    -0.00387525 
C352     C      0.729000000000     0.027890000000     0.857660000000    -0.0037998  
C353     C      0.729010000000     0.000340000000     0.841590000000    -0.0934771  
C354     C      0.729010000000     0.472790000000     0.857660000000    -0.0041502  
C355     C      0.729000000000     0.027890000000     0.607660000000    -0.00378571 
C356     C      0.729010000000     0.000340000000     0.591590000000    -0.0934704  
C357     C      0.729010000000     0.472790000000     0.607660000000    -0.00413497 
C358     C      0.729000000000     0.472790000000     0.639200000000    -0.00419169 
C359     C      0.729010000000     0.000340000000     0.655270000000    -0.0933762  
C360     C      0.729020000000     0.027890000000     0.639200000000    -0.00384004 
C361     C      0.576530000000     0.476090000000     0.761310000000     0.0783684  
C362     C      0.559360000000     0.000340000000     0.748420000000    -0.287041   
C363     C      0.576540000000     0.024590000000     0.735530000000     0.0785729  
C364     C      0.610670000000     0.024810000000     0.735800000000    -0.0450976  
C365     C      0.628080000000     0.000340000000     0.748430000000    -0.0604572  
C366     C      0.610660000000     0.475870000000     0.761050000000    -0.0454054  
C367     C      0.881480000000     0.476090000000     0.735530000000     0.0782668  
C368     C      0.898660000000     0.500330000000     0.748420000000    -0.279207   
C369     C      0.881490000000     0.024590000000     0.761310000000     0.0785002  
C370     C      0.847350000000     0.024800000000     0.761050000000    -0.04504    
C371     C      0.829940000000     0.500330000000     0.748430000000    -0.0523056  
C372     C      0.847340000000     0.475870000000     0.735800000000    -0.0453424  
C373     C      0.576530000000     0.476090000000     0.511310000000     0.0783663  
C374     C      0.559360000000     0.000340000000     0.498420000000    -0.287048   
C375     C      0.576540000000     0.024590000000     0.985530000000     0.0786151  
C376     C      0.610670000000     0.024810000000     0.985800000000    -0.0446314  
C377     C      0.628080000000     0.000340000000     0.498430000000    -0.0603954  
C378     C      0.610660000000     0.475870000000     0.511050000000    -0.0454087  
C379     C      0.847350000000     0.024800000000     0.511040000000    -0.0448982  
C380     C      0.829940000000     0.000340000000     0.998430000000    -0.0642129  
C381     C      0.847340000000     0.475870000000     0.985800000000    -0.0446524  
C382     C      0.881480000000     0.476080000000     0.985530000000     0.0780262  
C383     C      0.898660000000     0.500340000000     0.998420000000    -0.281893   
C384     C      0.881490000000     0.024590000000     0.511310000000     0.0783949  
C385     C      0.508490000000     0.500350000000     0.889350000000    -0.00210716 
C386     C      0.979010000000     0.000340000000     0.905840000000    -0.0903448  
C387     C      0.949530000000     0.000330000000     0.889350000000    -0.00442571 
C388     C      0.949530000000     0.000350000000     0.857480000000    -0.00375269 
C389     C      0.479010000000     0.500340000000     0.840980000000    -0.0930244  
C390     C      0.508490000000     0.500330000000     0.857470000000    -0.00202926 
C391     C      0.949530000000     0.000350000000     0.607480000000    -0.00376316 
C392     C      0.479010000000     0.000340000000     0.590980000000    -0.0902846  
C393     C      0.508490000000     0.500330000000     0.607470000000    -0.00204036 
C394     C      0.508490000000     0.500350000000     0.639350000000    -0.00205968 
C395     C      0.979010000000     0.500340000000     0.655840000000    -0.0931436  
C396     C      0.949530000000     0.000320000000     0.639350000000    -0.00438525 
C397     C      0.449450000000     0.360750000000     0.748570000000    -0.0122894  
C398     C      0.979010000000     0.344480000000     0.748380000000    -0.0765122  
C399     C      0.008570000000     0.360760000000     0.748200000000    -0.0121547  
C400     C      0.008570000000     0.392530000000     0.748200000000     0.00901835 
C401     C      0.979010000000     0.408780000000     0.748400000000    -0.109357   
C402     C      0.449440000000     0.392520000000     0.748580000000     0.00876421 
C403     C      0.008570000000     0.139930000000     0.748560000000    -0.0120256  
C404     C      0.479010000000     0.156200000000     0.748370000000    -0.0764783  
C405     C      0.449450000000     0.139920000000     0.748190000000    -0.0122073  
C406     C      0.449450000000     0.108150000000     0.748200000000     0.00852821 
C407     C      0.479010000000     0.091890000000     0.748390000000    -0.108718   
C408     C      0.008570000000     0.108150000000     0.748580000000     0.00870008 
C409     C      0.949410000000     0.250330000000     0.889140000000    -0.00388278 
C410     C      0.979010000000     0.250340000000     0.905200000000    -0.0849508  
C411     C      0.508610000000     0.250340000000     0.889130000000    -0.00385619 
C412     C      0.508610000000     0.250340000000     0.857600000000    -0.00376597 
C413     C      0.979010000000     0.250330000000     0.841520000000    -0.0851654  
C414     C      0.949410000000     0.250330000000     0.857600000000    -0.00376674 
C415     C      0.508610000000     0.250340000000     0.607600000000    -0.00376    
C416     C      0.979010000000     0.250340000000     0.591520000000    -0.0852197  
C417     C      0.949410000000     0.250340000000     0.607600000000    -0.00375436 
C418     C      0.949410000000     0.250340000000     0.639140000000    -0.00381567 
C419     C      0.979010000000     0.250340000000     0.655210000000    -0.0850999  
C420     C      0.508610000000     0.250340000000     0.639130000000    -0.00382693 
C421     C      0.949450000000     0.392520000000     0.998580000000     0.00868172 
C422     C      0.979010000000     0.408780000000     0.998390000000    -0.109725   
C423     C      0.508570000000     0.392530000000     0.498190000000     0.00883039 
C424     C      0.508570000000     0.360760000000     0.498190000000    -0.0123283  
C425     C      0.979010000000     0.344480000000     0.998370000000    -0.0767403  
C426     C      0.949440000000     0.360750000000     0.998560000000    -0.0126032  
C427     C      0.508570000000     0.139930000000     0.998570000000    -0.0124387  
C428     C      0.479010000000     0.156200000000     0.998380000000    -0.0767259  
C429     C      0.949450000000     0.139920000000     0.498200000000    -0.0122058  
C430     C      0.949450000000     0.108150000000     0.498200000000     0.00853099 
C431     C      0.479010000000     0.091890000000     0.998390000000    -0.109034   
C432     C      0.508570000000     0.108160000000     0.998580000000     0.00832042 
C433     C      0.979010000000     0.750340000000     0.438540000000     0.354925   
C434     C      0.979010000000     0.750340000000     0.058190000000     0.35456    
C435     C      0.979010000000     0.689900000000     0.998370000000     0.347274   
C436     C      0.979010000000     0.810780000000     0.498370000000     0.347722   
C437     C      0.479010000000     0.750340000000     0.308200000000     0.35506    
C438     C      0.479010000000     0.750340000000     0.188540000000     0.3552     
C439     C      0.479010000000     0.810780000000     0.248370000000     0.348205   
C440     C      0.479010000000     0.689900000000     0.248370000000     0.347813   
C441     C      0.479010000000     0.942460000000     0.498400000000     0.417678   
C442     C      0.979010000000     0.558220000000     0.498400000000     0.420188   
C443     C      0.479010000000     0.500340000000     0.439890000000     0.398308   
C444     C      0.979010000000     0.500340000000     0.056930000000     0.397814   
C445     C      0.479010000000     0.942460000000     0.248410000000     0.417692   
C446     C      0.979010000000     0.558220000000     0.248400000000     0.420208   
C447     C      0.479010000000     0.000340000000     0.189890000000     0.383232   
C448     C      0.979010000000     0.000340000000     0.306930000000     0.383082   
C449     C      0.229010000000     0.500340000000     0.058260000000     0.353944   
C450     C      0.229010000000     0.500340000000     0.438610000000     0.354532   
C451     C      0.293870000000     0.500340000000     0.498430000000     0.33909    
C452     C      0.164150000000     0.500340000000     0.998430000000     0.340004   
C453     C      0.229010000000     0.500340000000     0.308260000000     0.354416   
C454     C      0.229010000000     0.500340000000     0.188610000000     0.35459    
C455     C      0.293870000000     0.500340000000     0.248430000000     0.339067   
C456     C      0.164150000000     0.500340000000     0.248430000000     0.339184   
C457     C      0.229000000000     0.972790000000     0.389200000000     0.00487426 
C458     C      0.229010000000     0.500340000000     0.405270000000    -0.0851965  
C459     C      0.229020000000     0.527890000000     0.389200000000    -0.00420857 
C460     C      0.229010000000     0.527890000000     0.357660000000    -0.0041596  
C461     C      0.229010000000     0.500340000000     0.341590000000    -0.0852826  
C462     C      0.229010000000     0.972790000000     0.357660000000     0.00492227 
C463     C      0.229000000000     0.527890000000     0.107660000000    -0.00423036 
C464     C      0.229010000000     0.500340000000     0.091590000000    -0.0845906  
C465     C      0.229010000000     0.972790000000     0.107660000000     0.00483129 
C466     C      0.229000000000     0.972790000000     0.139200000000     0.00511108 
C467     C      0.229010000000     0.500340000000     0.155270000000    -0.0851987  
C468     C      0.229020000000     0.527890000000     0.139200000000    -0.00395954 
C469     C      0.076530000000     0.976090000000     0.261310000000     0.087373   
C470     C      0.059360000000     0.500340000000     0.248410000000    -0.279369   
C471     C      0.076540000000     0.524590000000     0.235530000000     0.0783378  
C472     C      0.110670000000     0.524810000000     0.235800000000    -0.0453777  
C473     C      0.128080000000     0.500340000000     0.248430000000    -0.0522733  
C474     C      0.110660000000     0.975870000000     0.261050000000    -0.0361777  
C475     C      0.381480000000     0.976090000000     0.235530000000     0.0873352  
C476     C      0.398660000000     0.000340000000     0.248420000000    -0.286926   
C477     C      0.381490000000     0.524590000000     0.261310000000     0.0781952  
C478     C      0.347350000000     0.524800000000     0.261050000000    -0.0453139  
C479     C      0.329940000000     0.000340000000     0.248430000000    -0.0604155  
C480     C      0.347340000000     0.975870000000     0.235800000000    -0.0361684  
C481     C      0.076530000000     0.976090000000     0.011310000000     0.0904349  
C482     C      0.059360000000     0.500340000000     0.998420000000    -0.28218    
C483     C      0.076540000000     0.524590000000     0.485530000000     0.0782734  
C484     C      0.110670000000     0.524810000000     0.485800000000    -0.0454008  
C485     C      0.128080000000     0.500340000000     0.998430000000    -0.0560885  
C486     C      0.110660000000     0.975870000000     0.011050000000    -0.0326763  
C487     C      0.347350000000     0.524800000000     0.011050000000    -0.041639   
C488     C      0.329940000000     0.500340000000     0.498430000000    -0.0523698  
C489     C      0.347340000000     0.975870000000     0.485800000000    -0.036082   
C490     C      0.381480000000     0.976080000000     0.485530000000     0.0871612  
C491     C      0.398660000000     0.000340000000     0.498420000000    -0.286826   
C492     C      0.381490000000     0.524590000000     0.011310000000     0.0811718  
C493     C      0.008490000000     0.000350000000     0.389350000000    -0.00363099 
C494     C      0.479010000000     0.500340000000     0.405840000000    -0.0929906  
C495     C      0.449530000000     0.500330000000     0.389350000000    -0.00204954 
C496     C      0.449530000000     0.500350000000     0.357480000000    -0.00203815 
C497     C      0.979010000000     0.000340000000     0.340980000000    -0.0904641  
C498     C      0.008490000000     0.000330000000     0.357470000000    -0.00422184 
C499     C      0.449530000000     0.500350000000     0.107470000000    -0.00206436 
C500     C      0.979010000000     0.500340000000     0.090980000000    -0.0924621  
C501     C      0.008490000000     0.000330000000     0.107470000000    -0.00424002 
C502     C      0.008490000000     0.000350000000     0.139350000000    -0.00337766 
C503     C      0.479010000000     0.000340000000     0.155840000000    -0.0902563  
C504     C      0.449530000000     0.500320000000     0.139350000000    -0.00179725 
C505     C      0.949450000000     0.860750000000     0.248570000000    -0.0114843  
C506     C      0.479010000000     0.844480000000     0.248380000000    -0.0765545  
C507     C      0.508570000000     0.860760000000     0.248200000000    -0.0115156  
C508     C      0.508570000000     0.892530000000     0.248200000000     0.00847774 
C509     C      0.479010000000     0.908780000000     0.248400000000    -0.106768   
C510     C      0.949440000000     0.892520000000     0.248580000000     0.00842537 
C511     C      0.508570000000     0.639930000000     0.248560000000    -0.012375   
C512     C      0.979010000000     0.656200000000     0.248370000000    -0.0765129  
C513     C      0.949450000000     0.639920000000     0.248190000000    -0.0123654  
C514     C      0.949450000000     0.608150000000     0.248200000000     0.00890698 
C515     C      0.979010000000     0.591890000000     0.248390000000    -0.109528   
C516     C      0.508570000000     0.608160000000     0.248580000000     0.00889924 
C517     C      0.449410000000     0.750330000000     0.389140000000    -0.00378696 
C518     C      0.479010000000     0.750340000000     0.405210000000    -0.0849039  
C519     C      0.008610000000     0.750340000000     0.389130000000    -0.00361241 
C520     C      0.008610000000     0.750340000000     0.357600000000    -0.00355255 
C521     C      0.479010000000     0.750340000000     0.341520000000    -0.0850152  
C522     C      0.449410000000     0.750330000000     0.357600000000    -0.00373107 
C523     C      0.008610000000     0.750340000000     0.107600000000    -0.00361155 
C524     C      0.479010000000     0.750340000000     0.091520000000    -0.0841546  
C525     C      0.449410000000     0.750340000000     0.107600000000    -0.00380759 
C526     C      0.449410000000     0.750340000000     0.139130000000    -0.00347606 
C527     C      0.479010000000     0.750340000000     0.155210000000    -0.0849062  
C528     C      0.008610000000     0.750340000000     0.139130000000    -0.00331308 
C529     C      0.449440000000     0.892520000000     0.498580000000     0.00838116 
C530     C      0.479010000000     0.908780000000     0.498390000000    -0.106809   
C531     C      0.008570000000     0.892530000000     0.998190000000     0.00843625 
C532     C      0.008570000000     0.860750000000     0.998190000000    -0.0116758  
C533     C      0.479010000000     0.844480000000     0.498370000000    -0.0764972  
C534     C      0.449450000000     0.860750000000     0.498560000000    -0.0115189  
C535     C      0.008570000000     0.639930000000     0.498570000000    -0.0122109  
C536     C      0.979010000000     0.656200000000     0.498380000000    -0.0765713  
C537     C      0.449450000000     0.639920000000     0.998200000000    -0.0126589  
C538     C      0.449450000000     0.608150000000     0.998200000000     0.00865961 
C539     C      0.979010000000     0.591890000000     0.498400000000    -0.109551   
C540     C      0.008570000000     0.608150000000     0.498580000000     0.00903101 
C541     C      0.479010000000     0.750340000000     0.438540000000     0.355122   
C542     C      0.479010000000     0.750340000000     0.058190000000     0.354753   
C543     C      0.479010000000     0.689900000000     0.998370000000     0.34747    
C544     C      0.479010000000     0.810780000000     0.498370000000     0.347955   
C545     C      0.979010000000     0.750340000000     0.308200000000     0.354861   
C546     C      0.979010000000     0.750340000000     0.188540000000     0.355      
C547     C      0.979010000000     0.810780000000     0.248370000000     0.347771   
C548     C      0.979010000000     0.689900000000     0.248370000000     0.347615   
C549     C      0.979010000000     0.942460000000     0.498400000000     0.417477   
C550     C      0.479010000000     0.558220000000     0.498400000000     0.420401   
C551     C      0.979010000000     0.500340000000     0.439890000000     0.398099   
C552     C      0.479010000000     0.500340000000     0.056930000000     0.398017   
C553     C      0.979010000000     0.942460000000     0.248410000000     0.417494   
C554     C      0.479010000000     0.558220000000     0.248400000000     0.420415   
C555     C      0.979010000000     0.000340000000     0.189890000000     0.383031   
C556     C      0.479010000000     0.000340000000     0.306930000000     0.383283   
C557     C      0.729010000000     0.500340000000     0.058260000000     0.353945   
C558     C      0.729010000000     0.500340000000     0.438610000000     0.354532   
C559     C      0.793870000000     0.500340000000     0.498430000000     0.339119   
C560     C      0.664150000000     0.500340000000     0.998430000000     0.339978   
C561     C      0.729010000000     0.500340000000     0.308260000000     0.354417   
C562     C      0.729010000000     0.500340000000     0.188610000000     0.35459    
C563     C      0.793870000000     0.500340000000     0.248430000000     0.339096   
C564     C      0.664150000000     0.500340000000     0.248430000000     0.33915    
C565     C      0.729000000000     0.972790000000     0.389200000000     0.00487487 
C566     C      0.729010000000     0.500340000000     0.405270000000    -0.0851952  
C567     C      0.729020000000     0.527890000000     0.389200000000    -0.00420829 
C568     C      0.729010000000     0.527890000000     0.357660000000    -0.00415857 
C569     C      0.729010000000     0.500340000000     0.341590000000    -0.0852822  
C570     C      0.729010000000     0.972790000000     0.357660000000     0.004923   
C571     C      0.729010000000     0.527890000000     0.107660000000    -0.00423005 
C572     C      0.729010000000     0.500340000000     0.091590000000    -0.0845899  
C573     C      0.729010000000     0.972790000000     0.107660000000     0.00483202 
C574     C      0.729000000000     0.972790000000     0.139200000000     0.00511164 
C575     C      0.729010000000     0.500340000000     0.155270000000    -0.0851976  
C576     C      0.729020000000     0.527890000000     0.139200000000    -0.00395895 
C577     C      0.576530000000     0.976090000000     0.261310000000     0.0873654  
C578     C      0.559350000000     0.500340000000     0.248410000000    -0.279529   
C579     C      0.576540000000     0.524590000000     0.235530000000     0.0783909  
C580     C      0.610670000000     0.524810000000     0.235800000000    -0.0454168  
C581     C      0.628080000000     0.500340000000     0.248430000000    -0.0522416  
C582     C      0.610660000000     0.975870000000     0.261050000000    -0.0361765  
C583     C      0.881480000000     0.976090000000     0.235530000000     0.0873113  
C584     C      0.898660000000     0.000340000000     0.248420000000    -0.286872   
C585     C      0.881490000000     0.524590000000     0.261310000000     0.0781808  
C586     C      0.847350000000     0.524800000000     0.261050000000    -0.045304   
C587     C      0.829940000000     0.000340000000     0.248430000000    -0.0604226  
C588     C      0.847340000000     0.975870000000     0.235800000000    -0.0361562  
C589     C      0.576530000000     0.976090000000     0.011310000000     0.0904317  
C590     C      0.559360000000     0.500340000000     0.998420000000    -0.282161   
C591     C      0.576540000000     0.524590000000     0.485530000000     0.0783298  
C592     C      0.610670000000     0.524810000000     0.485800000000    -0.0454417  
C593     C      0.628080000000     0.500340000000     0.998430000000    -0.0560821  
C594     C      0.610660000000     0.975870000000     0.011050000000    -0.0326813  
C595     C      0.847350000000     0.524800000000     0.011040000000    -0.0415704  
C596     C      0.829940000000     0.500340000000     0.498430000000    -0.0523847  
C597     C      0.847340000000     0.975870000000     0.485800000000    -0.0360698  
C598     C      0.881480000000     0.976080000000     0.485530000000     0.0871374  
C599     C      0.898660000000     0.000340000000     0.498420000000    -0.286773   
C600     C      0.881490000000     0.524590000000     0.011310000000     0.0811161  
C601     C      0.508490000000     0.000350000000     0.389350000000    -0.00380976 
C602     C      0.979010000000     0.500340000000     0.405840000000    -0.0931523  
C603     C      0.949530000000     0.500320000000     0.389350000000    -0.0020457  
C604     C      0.949530000000     0.500350000000     0.357480000000    -0.0020328  
C605     C      0.479010000000     0.000340000000     0.340980000000    -0.0903014  
C606     C      0.508490000000     0.000330000000     0.357470000000    -0.00440068 
C607     C      0.949530000000     0.500350000000     0.107470000000    -0.00205986 
C608     C      0.479010000000     0.500340000000     0.090980000000    -0.0922993  
C609     C      0.508490000000     0.000330000000     0.107470000000    -0.00441841 
C610     C      0.508490000000     0.000350000000     0.139350000000    -0.00355604 
C611     C      0.979010000000     0.000340000000     0.155840000000    -0.0904186  
C612     C      0.949530000000     0.500320000000     0.139350000000    -0.00179229 
C613     C      0.449450000000     0.860750000000     0.248570000000    -0.011445   
C614     C      0.979010000000     0.844480000000     0.248380000000    -0.0766178  
C615     C      0.008570000000     0.860760000000     0.248200000000    -0.0113849  
C616     C      0.008570000000     0.892530000000     0.248200000000     0.00868014 
C617     C      0.979010000000     0.908780000000     0.248400000000    -0.106947   
C618     C      0.449440000000     0.892520000000     0.248580000000     0.0083958  
C619     C      0.008570000000     0.639930000000     0.248560000000    -0.0121957  
C620     C      0.479010000000     0.656200000000     0.248370000000    -0.076349   
C621     C      0.449450000000     0.639920000000     0.248190000000    -0.0123721  
C622     C      0.449450000000     0.608150000000     0.248200000000     0.00890159 
C623     C      0.479010000000     0.591890000000     0.248390000000    -0.109367   
C624     C      0.008570000000     0.608160000000     0.248580000000     0.00907617 
C625     C      0.949410000000     0.750330000000     0.389140000000    -0.00377947 
C626     C      0.979010000000     0.750340000000     0.405210000000    -0.085068   
C627     C      0.508610000000     0.750340000000     0.389130000000    -0.00379146 
C628     C      0.508610000000     0.750340000000     0.357600000000    -0.00373047 
C629     C      0.979010000000     0.750340000000     0.341520000000    -0.0851775  
C630     C      0.949410000000     0.750330000000     0.357600000000    -0.00372467 
C631     C      0.508610000000     0.750340000000     0.107600000000    -0.00380578 
C632     C      0.979010000000     0.750340000000     0.091520000000    -0.0843284  
C633     C      0.949410000000     0.750340000000     0.107600000000    -0.0037954  
C634     C      0.949410000000     0.750340000000     0.139130000000    -0.00347298 
C635     C      0.979010000000     0.750340000000     0.155210000000    -0.0850651  
C636     C      0.508610000000     0.750340000000     0.139130000000    -0.00348484 
C637     C      0.949440000000     0.892520000000     0.498580000000     0.00841448 
C638     C      0.979010000000     0.908780000000     0.498390000000    -0.106983   
C639     C      0.508570000000     0.892530000000     0.998190000000     0.00825977 
C640     C      0.508570000000     0.860750000000     0.998190000000    -0.0118552  
C641     C      0.979010000000     0.844480000000     0.498370000000    -0.0766316  
C642     C      0.949450000000     0.860750000000     0.498560000000    -0.0115674  
C643     C      0.508570000000     0.639930000000     0.498570000000    -0.0123955  
C644     C      0.479010000000     0.656200000000     0.498380000000    -0.0763959  
C645     C      0.949450000000     0.639920000000     0.998200000000    -0.0126516  
C646     C      0.949450000000     0.608150000000     0.998200000000     0.00866435 
C647     C      0.479010000000     0.591890000000     0.498400000000    -0.109393   
C648     C      0.508570000000     0.608150000000     0.498580000000     0.00885741 
C649     C      0.979010000000     0.750340000000     0.938540000000     0.354674   
C650     C      0.979010000000     0.750340000000     0.558200000000     0.354868   
C651     C      0.979010000000     0.689900000000     0.498370000000     0.347636   
C652     C      0.979010000000     0.810780000000     0.998370000000     0.347426   
C653     C      0.479010000000     0.750340000000     0.808200000000     0.35507    
C654     C      0.479010000000     0.750340000000     0.688540000000     0.355126   
C655     C      0.479010000000     0.810780000000     0.748370000000     0.347971   
C656     C      0.479010000000     0.689900000000     0.748370000000     0.347813   
C657     C      0.479010000000     0.942460000000     0.998400000000     0.417336   
C658     C      0.979010000000     0.558220000000     0.998400000000     0.41984    
C659     C      0.479010000000     0.500340000000     0.939890000000     0.398065   
C660     C      0.979010000000     0.500340000000     0.556930000000     0.398252   
C661     C      0.479010000000     0.942460000000     0.748410000000     0.417397   
C662     C      0.979010000000     0.558220000000     0.748400000000     0.420091   
C663     C      0.479010000000     0.000340000000     0.689890000000     0.38315    
C664     C      0.979010000000     0.000340000000     0.806930000000     0.383089   
C665     C      0.229010000000     0.500340000000     0.558260000000     0.354425   
C666     C      0.229010000000     0.500340000000     0.938610000000     0.354364   
C667     C      0.293870000000     0.500340000000     0.998430000000     0.339664   
C668     C      0.164150000000     0.500340000000     0.498430000000     0.339171   
C669     C      0.229010000000     0.500340000000     0.808260000000     0.354427   
C670     C      0.229010000000     0.500340000000     0.688610000000     0.354538   
C671     C      0.293870000000     0.500340000000     0.748430000000     0.339066   
C672     C      0.164150000000     0.500340000000     0.748430000000     0.339175   
C673     C      0.229000000000     0.972790000000     0.889200000000     0.00483827 
C674     C      0.229010000000     0.500340000000     0.905270000000    -0.0851742  
C675     C      0.229020000000     0.527890000000     0.889200000000    -0.00423703 
C676     C      0.229010000000     0.527890000000     0.857660000000    -0.00416418 
C677     C      0.229010000000     0.500340000000     0.841590000000    -0.0852924  
C678     C      0.229010000000     0.972790000000     0.857660000000     0.00491751 
C679     C      0.229000000000     0.527890000000     0.607660000000    -0.00414833 
C680     C      0.229010000000     0.500340000000     0.591590000000    -0.0852818  
C681     C      0.229010000000     0.972790000000     0.607660000000     0.00493665 
C682     C      0.229000000000     0.972790000000     0.639200000000     0.00488114 
C683     C      0.229010000000     0.500340000000     0.655270000000    -0.0851854  
C684     C      0.229020000000     0.527890000000     0.639200000000    -0.00420439 
C685     C      0.076530000000     0.976090000000     0.761310000000     0.0874154  
C686     C      0.059360000000     0.500340000000     0.748420000000    -0.279397   
C687     C      0.076540000000     0.524590000000     0.735530000000     0.0782771  
C688     C      0.110670000000     0.524810000000     0.735800000000    -0.045395   
C689     C      0.128080000000     0.500340000000     0.748430000000    -0.0522759  
C690     C      0.110660000000     0.975870000000     0.761050000000    -0.0361992  
C691     C      0.381480000000     0.976090000000     0.735530000000     0.0873114  
C692     C      0.398660000000     0.000340000000     0.748420000000    -0.286922   
C693     C      0.381490000000     0.524590000000     0.761310000000     0.0782014  
C694     C      0.347350000000     0.524800000000     0.761050000000    -0.0453152  
C695     C      0.329940000000     0.000340000000     0.748430000000    -0.0604578  
C696     C      0.347340000000     0.975870000000     0.735800000000    -0.0361749  
C697     C      0.076530000000     0.976090000000     0.511310000000     0.0873878  
C698     C      0.059360000000     0.500340000000     0.498420000000    -0.279402   
C699     C      0.076540000000     0.524590000000     0.985530000000     0.078264   
C700     C      0.110670000000     0.524810000000     0.985800000000    -0.0448194  
C701     C      0.128080000000     0.500340000000     0.498430000000    -0.0522781  
C702     C      0.110660000000     0.975880000000     0.511050000000    -0.0361565  
C703     C      0.347350000000     0.524800000000     0.511040000000    -0.045205   
C704     C      0.329940000000     0.500340000000     0.998430000000    -0.0560564  
C705     C      0.347340000000     0.975870000000     0.985800000000    -0.0356522  
C706     C      0.381480000000     0.976090000000     0.985530000000     0.0873045  
C707     C      0.398660000000     0.000340000000     0.998420000000    -0.289713   
C708     C      0.381490000000     0.524590000000     0.511310000000     0.0781122  
C709     C      0.008490000000     0.000350000000     0.889350000000    -0.00366233 
C710     C      0.479010000000     0.500340000000     0.905840000000    -0.092895   
C711     C      0.449530000000     0.500320000000     0.889350000000    -0.00208672 
C712     C      0.449530000000     0.500350000000     0.857480000000    -0.00201757 
C713     C      0.979010000000     0.000340000000     0.840980000000    -0.0904603  
C714     C      0.008490000000     0.000330000000     0.857470000000    -0.00420379 
C715     C      0.449530000000     0.500350000000     0.607480000000    -0.00202912 
C716     C      0.979010000000     0.500340000000     0.590980000000    -0.0931707  
C717     C      0.008490000000     0.000330000000     0.607470000000    -0.0042142  
C718     C      0.008490000000     0.000350000000     0.639350000000    -0.00362047 
C719     C      0.479010000000     0.000340000000     0.655840000000    -0.0902573  
C720     C      0.449530000000     0.500320000000     0.639350000000    -0.00203944 
C721     C      0.949440000000     0.860750000000     0.748570000000    -0.0115932  
C722     C      0.479010000000     0.844480000000     0.748380000000    -0.0765182  
C723     C      0.508570000000     0.860760000000     0.748200000000    -0.0115558  
C724     C      0.508570000000     0.892530000000     0.748200000000     0.00841173 
C725     C      0.479010000000     0.908780000000     0.748400000000    -0.106682   
C726     C      0.949440000000     0.892520000000     0.748580000000     0.00844109 
C727     C      0.508570000000     0.639930000000     0.748560000000    -0.0123647  
C728     C      0.979010000000     0.656200000000     0.748370000000    -0.0765821  
C729     C      0.949450000000     0.639920000000     0.748190000000    -0.012356   
C730     C      0.949450000000     0.608150000000     0.748200000000     0.00881304 
C731     C      0.979010000000     0.591900000000     0.748390000000    -0.109411   
C732     C      0.508570000000     0.608160000000     0.748580000000     0.0088055  
C733     C      0.449410000000     0.750330000000     0.889140000000    -0.0038117  
C734     C      0.479010000000     0.750340000000     0.905210000000    -0.0848567  
C735     C      0.008610000000     0.750340000000     0.889130000000    -0.00367605 
C736     C      0.008610000000     0.750340000000     0.857600000000    -0.00355472 
C737     C      0.479010000000     0.750340000000     0.841520000000    -0.0850229  
C738     C      0.449410000000     0.750330000000     0.857600000000    -0.00372689 
C739     C      0.008610000000     0.750340000000     0.607600000000    -0.00354171 
C740     C      0.479010000000     0.750340000000     0.591520000000    -0.0850142  
C741     C      0.449410000000     0.750340000000     0.607600000000    -0.00372117 
C742     C      0.449410000000     0.750340000000     0.639140000000    -0.00378287 
C743     C      0.479010000000     0.750340000000     0.655210000000    -0.0848942  
C744     C      0.008610000000     0.750340000000     0.639130000000    -0.0036084  
C745     C      0.449440000000     0.892520000000     0.998580000000     0.00817888 
C746     C      0.479010000000     0.908780000000     0.998390000000    -0.107121   
C747     C      0.008570000000     0.892530000000     0.498190000000     0.00865142 
C748     C      0.008570000000     0.860750000000     0.498190000000    -0.0114294  
C749     C      0.479010000000     0.844480000000     0.998370000000    -0.0767461  
C750     C      0.449450000000     0.860750000000     0.998560000000    -0.0117438  
C751     C      0.008570000000     0.639930000000     0.998570000000    -0.0124451  
C752     C      0.979010000000     0.656200000000     0.998380000000    -0.0768085  
C753     C      0.449450000000     0.639920000000     0.498200000000    -0.012398   
C754     C      0.449450000000     0.608150000000     0.498200000000     0.00886395 
C755     C      0.979010000000     0.591890000000     0.998390000000    -0.109861   
C756     C      0.008570000000     0.608160000000     0.998580000000     0.0088328  
C757     C      0.479010000000     0.750340000000     0.938540000000     0.354955   
C758     C      0.479010000000     0.750340000000     0.558200000000     0.355065   
C759     C      0.479010000000     0.689900000000     0.498370000000     0.347803   
C760     C      0.479010000000     0.810780000000     0.998370000000     0.347621   
C761     C      0.979010000000     0.750340000000     0.808190000000     0.355001   
C762     C      0.979010000000     0.750340000000     0.688540000000     0.35493    
C763     C      0.979010000000     0.810780000000     0.748370000000     0.347753   
C764     C      0.979010000000     0.689900000000     0.748370000000     0.347616   
C765     C      0.979010000000     0.942460000000     0.998400000000     0.417131   
C766     C      0.479010000000     0.558220000000     0.998400000000     0.420046   
C767     C      0.979010000000     0.500340000000     0.939890000000     0.397862   
C768     C      0.479010000000     0.500340000000     0.556930000000     0.398461   
C769     C      0.979010000000     0.942460000000     0.748400000000     0.417489   
C770     C      0.479010000000     0.558220000000     0.748400000000     0.420302   
C771     C      0.979010000000     0.000340000000     0.689890000000     0.38295    
C772     C      0.479010000000     0.000340000000     0.806930000000     0.383283   
C773     C      0.729010000000     0.500340000000     0.558260000000     0.354426   
C774     C      0.729010000000     0.500340000000     0.938610000000     0.354364   
C775     C      0.793870000000     0.500340000000     0.998430000000     0.339702   
C776     C      0.664150000000     0.500340000000     0.498430000000     0.339136   
C777     C      0.729010000000     0.500340000000     0.808260000000     0.354428   
C778     C      0.729010000000     0.500340000000     0.688610000000     0.354538   
C779     C      0.793870000000     0.500340000000     0.748430000000     0.339096   
C780     C      0.664150000000     0.500340000000     0.748430000000     0.33914    
C781     C      0.729000000000     0.972790000000     0.889200000000     0.00483873 
C782     C      0.729010000000     0.500340000000     0.905270000000    -0.0851729  
C783     C      0.729020000000     0.527890000000     0.889200000000    -0.00423669 
C784     C      0.729010000000     0.527890000000     0.857660000000    -0.00416308 
C785     C      0.729010000000     0.500340000000     0.841590000000    -0.0852918  
C786     C      0.729010000000     0.972790000000     0.857660000000     0.00491835 
C787     C      0.729000000000     0.527890000000     0.607660000000    -0.00414759 
C788     C      0.729010000000     0.500340000000     0.591590000000    -0.0852812  
C789     C      0.729010000000     0.972790000000     0.607660000000     0.00493729 
C790     C      0.729000000000     0.972790000000     0.639200000000     0.00488188 
C791     C      0.729010000000     0.500340000000     0.655270000000    -0.0851842  
C792     C      0.729020000000     0.527890000000     0.639200000000    -0.00420403 
C793     C      0.576530000000     0.976090000000     0.761310000000     0.0874053  
C794     C      0.559350000000     0.500340000000     0.748420000000    -0.279565   
C795     C      0.576540000000     0.524590000000     0.735530000000     0.0783337  
C796     C      0.610670000000     0.524810000000     0.735800000000    -0.0454359  
C797     C      0.628080000000     0.500340000000     0.748430000000    -0.0522425  
C798     C      0.610660000000     0.975870000000     0.761050000000    -0.0361974  
C799     C      0.881480000000     0.976090000000     0.735530000000     0.0872936  
C800     C      0.898660000000     0.000340000000     0.748420000000    -0.286886   
C801     C      0.881490000000     0.524590000000     0.761310000000     0.0780859  
C802     C      0.847350000000     0.524800000000     0.761050000000    -0.0452655  
C803     C      0.829940000000     0.000340000000     0.748430000000    -0.060462   
C804     C      0.847340000000     0.975870000000     0.735800000000    -0.0361668  
C805     C      0.576530000000     0.976090000000     0.511310000000     0.0873802  
C806     C      0.559350000000     0.500340000000     0.498420000000    -0.279571   
C807     C      0.576540000000     0.524590000000     0.985530000000     0.078258   
C808     C      0.610670000000     0.524810000000     0.985800000000    -0.0448222  
C809     C      0.628080000000     0.500340000000     0.498430000000    -0.0522449  
C810     C      0.610660000000     0.975880000000     0.511050000000    -0.0361552  
C811     C      0.847350000000     0.524800000000     0.511040000000    -0.0451911  
C812     C      0.829940000000     0.500340000000     0.998430000000    -0.0560938  
C813     C      0.847340000000     0.975870000000     0.985800000000    -0.0356228  
C814     C      0.881480000000     0.976090000000     0.985530000000     0.0872673  
C815     C      0.898660000000     0.000340000000     0.998420000000    -0.289645   
C816     C      0.881490000000     0.524590000000     0.511310000000     0.0780907  
C817     C      0.508490000000     0.000350000000     0.889350000000    -0.00384054 
C818     C      0.979010000000     0.500340000000     0.905840000000    -0.0930581  
C819     C      0.949530000000     0.500320000000     0.889350000000    -0.00208125 
C820     C      0.949530000000     0.500350000000     0.857480000000    -0.00201301 
C821     C      0.479010000000     0.000340000000     0.840980000000    -0.090297   
C822     C      0.508490000000     0.000330000000     0.857470000000    -0.00438373 
C823     C      0.949530000000     0.500350000000     0.607480000000    -0.00202515 
C824     C      0.479010000000     0.500340000000     0.590980000000    -0.0930086  
C825     C      0.508490000000     0.000330000000     0.607470000000    -0.00439234 
C826     C      0.508490000000     0.000350000000     0.639350000000    -0.00379951 
C827     C      0.979010000000     0.000340000000     0.655840000000    -0.0904234  
C828     C      0.949530000000     0.500320000000     0.639350000000    -0.00203518 
C829     C      0.449450000000     0.860750000000     0.748570000000    -0.0114812  
C830     C      0.979010000000     0.844480000000     0.748380000000    -0.0766174  
C831     C      0.008570000000     0.860760000000     0.748200000000    -0.0114285  
C832     C      0.008570000000     0.892530000000     0.748200000000     0.00866455 
C833     C      0.979010000000     0.908780000000     0.748400000000    -0.106989   
C834     C      0.449440000000     0.892520000000     0.748580000000     0.00832615 
C835     C      0.008570000000     0.639930000000     0.748560000000    -0.012185   
C836     C      0.479010000000     0.656200000000     0.748370000000    -0.076417   
C837     C      0.449450000000     0.639920000000     0.748190000000    -0.012363   
C838     C      0.449450000000     0.608150000000     0.748200000000     0.00880817 
C839     C      0.479010000000     0.591900000000     0.748390000000    -0.109251   
C840     C      0.008570000000     0.608160000000     0.748580000000     0.00898208 
C841     C      0.949410000000     0.750330000000     0.889140000000    -0.00384295 
C842     C      0.979010000000     0.750340000000     0.905200000000    -0.0849093  
C843     C      0.508610000000     0.750340000000     0.889130000000    -0.00381607 
C844     C      0.508610000000     0.750340000000     0.857600000000    -0.0037262  
C845     C      0.979010000000     0.750340000000     0.841520000000    -0.0851238  
C846     C      0.949410000000     0.750330000000     0.857600000000    -0.00372682 
C847     C      0.508610000000     0.750340000000     0.607600000000    -0.00372016 
C848     C      0.979010000000     0.750340000000     0.591520000000    -0.085178   
C849     C      0.949410000000     0.750340000000     0.607600000000    -0.00371427 
C850     C      0.949410000000     0.750340000000     0.639140000000    -0.00377581 
C851     C      0.979010000000     0.750340000000     0.655210000000    -0.0850583  
C852     C      0.508610000000     0.750340000000     0.639130000000    -0.00378694 
C853     C      0.949440000000     0.892520000000     0.998580000000     0.00818376 
C854     C      0.979010000000     0.908780000000     0.998390000000    -0.107282   
C855     C      0.508570000000     0.892530000000     0.498190000000     0.00846268 
C856     C      0.508570000000     0.860750000000     0.498190000000    -0.0115941  
C857     C      0.979010000000     0.844480000000     0.998370000000    -0.0769108  
C858     C      0.949450000000     0.860750000000     0.998560000000    -0.0117364  
C859     C      0.508570000000     0.639930000000     0.998570000000    -0.0126246  
C860     C      0.479010000000     0.656200000000     0.998380000000    -0.0766434  
C861     C      0.949450000000     0.639920000000     0.498200000000    -0.0123845  
C862     C      0.949450000000     0.608150000000     0.498200000000     0.00886502 
C863     C      0.479010000000     0.591890000000     0.998390000000    -0.1097     
C864     C      0.508570000000     0.608160000000     0.998580000000     0.00865612 
Cu1      Cu     0.009270000000     0.250340000000     0.998370000000     0.844187   
Cu2      Cu     0.448750000000     0.250340000000     0.498370000000     0.846602   
Cu3      Cu     0.009270000000     0.250340000000     0.248370000000     0.846959   
Cu4      Cu     0.448750000000     0.250330000000     0.248370000000     0.846683   
Cu5      Cu     0.445730000000     0.500340000000     0.498410000000     1.15213    
Cu6      Cu     0.012290000000     0.000340000000     0.998410000000     1.13247    
Cu7      Cu     0.445730000000     0.500340000000     0.248410000000     1.15211    
Cu8      Cu     0.012290000000     0.000340000000     0.248410000000     1.13472    
Cu9      Cu     0.229000000000     0.472160000000     0.498430000000     0.845924   
Cu10     Cu     0.229010000000     0.028520000000     0.998430000000     0.832721   
Cu11     Cu     0.229000000000     0.472160000000     0.248430000000     0.845989   
Cu12     Cu     0.229010000000     0.028520000000     0.248430000000     0.835495   
Cu13     Cu     0.509270000000     0.250340000000     0.998370000000     0.844067   
Cu14     Cu     0.948750000000     0.250340000000     0.498370000000     0.846401   
Cu15     Cu     0.509270000000     0.250340000000     0.248370000000     0.846837   
Cu16     Cu     0.948750000000     0.250330000000     0.248370000000     0.846482   
Cu17     Cu     0.945730000000     0.500340000000     0.498410000000     1.15196    
Cu18     Cu     0.512290000000     0.000340000000     0.998410000000     1.13241    
Cu19     Cu     0.945730000000     0.500340000000     0.248410000000     1.15198    
Cu20     Cu     0.512290000000     0.000340000000     0.248410000000     1.13466    
Cu21     Cu     0.729010000000     0.472160000000     0.498430000000     0.845928   
Cu22     Cu     0.729010000000     0.028520000000     0.998430000000     0.832725   
Cu23     Cu     0.729010000000     0.472160000000     0.248430000000     0.845992   
Cu24     Cu     0.729010000000     0.028520000000     0.248430000000     0.835499   
Cu25     Cu     0.009270000000     0.250340000000     0.498370000000     0.846879   
Cu26     Cu     0.448750000000     0.250340000000     0.998370000000     0.843914   
Cu27     Cu     0.009270000000     0.250340000000     0.748370000000     0.846893   
Cu28     Cu     0.448750000000     0.250340000000     0.748370000000     0.846611   
Cu29     Cu     0.445730000000     0.500340000000     0.998410000000     1.14988    
Cu30     Cu     0.012290000000     0.000340000000     0.498410000000     1.13471    
Cu31     Cu     0.445730000000     0.500340000000     0.748410000000     1.15218    
Cu32     Cu     0.012290000000     0.000340000000     0.748410000000     1.13472    
Cu33     Cu     0.229000000000     0.472160000000     0.998430000000     0.84325    
Cu34     Cu     0.229010000000     0.028520000000     0.498430000000     0.835397   
Cu35     Cu     0.229000000000     0.472160000000     0.748430000000     0.845932   
Cu36     Cu     0.229010000000     0.028520000000     0.748430000000     0.835428   
Cu37     Cu     0.509270000000     0.250340000000     0.498370000000     0.846755   
Cu38     Cu     0.948750000000     0.250340000000     0.998370000000     0.84371    
Cu39     Cu     0.509270000000     0.250340000000     0.748370000000     0.846765   
Cu40     Cu     0.948750000000     0.250340000000     0.748370000000     0.846415   
Cu41     Cu     0.945730000000     0.500340000000     0.998410000000     1.14967    
Cu42     Cu     0.512290000000     0.000340000000     0.498410000000     1.13464    
Cu43     Cu     0.945730000000     0.500340000000     0.748410000000     1.152      
Cu44     Cu     0.512290000000     0.000340000000     0.748410000000     1.13463    
Cu45     Cu     0.729010000000     0.472160000000     0.998430000000     0.843254   
Cu46     Cu     0.729010000000     0.028520000000     0.498430000000     0.8354     
Cu47     Cu     0.729010000000     0.472160000000     0.748430000000     0.845936   
Cu48     Cu     0.729010000000     0.028520000000     0.748430000000     0.835432   
Cu49     Cu     0.009270000000     0.750340000000     0.998370000000     0.844176   
Cu50     Cu     0.448750000000     0.750340000000     0.498370000000     0.846589   
Cu51     Cu     0.009270000000     0.750340000000     0.248370000000     0.846946   
Cu52     Cu     0.448750000000     0.750340000000     0.248370000000     0.84669    
Cu53     Cu     0.445730000000     0.000340000000     0.498410000000     1.13433    
Cu54     Cu     0.012290000000     0.500340000000     0.998410000000     1.15025    
Cu55     Cu     0.445730000000     0.000340000000     0.248410000000     1.1344     
Cu56     Cu     0.012290000000     0.500340000000     0.248410000000     1.15254    
Cu57     Cu     0.229000000000     0.972160000000     0.498430000000     0.852473   
Cu58     Cu     0.229010000000     0.528520000000     0.998430000000     0.843017   
Cu59     Cu     0.229000000000     0.972160000000     0.248430000000     0.852559   
Cu60     Cu     0.229010000000     0.528520000000     0.248430000000     0.84576    
Cu61     Cu     0.509270000000     0.750340000000     0.998370000000     0.844056   
Cu62     Cu     0.948750000000     0.750330000000     0.498370000000     0.846388   
Cu63     Cu     0.509270000000     0.750340000000     0.248370000000     0.846849   
Cu64     Cu     0.948750000000     0.750340000000     0.248370000000     0.846469   
Cu65     Cu     0.945730000000     0.000340000000     0.498410000000     1.13413    
Cu66     Cu     0.512290000000     0.500340000000     0.998410000000     1.15019    
Cu67     Cu     0.945730000000     0.000340000000     0.248410000000     1.1342     
Cu68     Cu     0.512290000000     0.500340000000     0.248410000000     1.15264    
Cu69     Cu     0.729000000000     0.972160000000     0.498430000000     0.852477   
Cu70     Cu     0.729010000000     0.528520000000     0.998430000000     0.843021   
Cu71     Cu     0.729000000000     0.972160000000     0.248430000000     0.852563   
Cu72     Cu     0.729010000000     0.528520000000     0.248430000000     0.845763   
Cu73     Cu     0.009270000000     0.750340000000     0.498370000000     0.846866   
Cu74     Cu     0.448750000000     0.750340000000     0.998370000000     0.843902   
Cu75     Cu     0.009270000000     0.750340000000     0.748370000000     0.84688    
Cu76     Cu     0.448750000000     0.750340000000     0.748370000000     0.846599   
Cu77     Cu     0.445730000000     0.000340000000     0.998410000000     1.13211    
Cu78     Cu     0.012290000000     0.500340000000     0.498410000000     1.15254    
Cu79     Cu     0.445730000000     0.000340000000     0.748410000000     1.13435    
Cu80     Cu     0.012290000000     0.500340000000     0.748410000000     1.15255    
Cu81     Cu     0.229000000000     0.972160000000     0.998430000000     0.849775   
Cu82     Cu     0.229010000000     0.528520000000     0.498430000000     0.845687   
Cu83     Cu     0.229000000000     0.972160000000     0.748430000000     0.852505   
Cu84     Cu     0.229010000000     0.528520000000     0.748430000000     0.845695   
Cu85     Cu     0.509270000000     0.750340000000     0.498370000000     0.846742   
Cu86     Cu     0.948750000000     0.750340000000     0.998370000000     0.843699   
Cu87     Cu     0.509270000000     0.750340000000     0.748370000000     0.846753   
Cu88     Cu     0.948750000000     0.750340000000     0.748370000000     0.846402   
Cu89     Cu     0.945730000000     0.000340000000     0.998410000000     1.1319     
Cu90     Cu     0.512290000000     0.500340000000     0.498410000000     1.15268    
Cu91     Cu     0.945730000000     0.000340000000     0.748410000000     1.13419    
Cu92     Cu     0.512290000000     0.500340000000     0.748410000000     1.15268    
Cu93     Cu     0.729010000000     0.972160000000     0.998430000000     0.849779   
Cu94     Cu     0.729010000000     0.528520000000     0.498430000000     0.845691   
Cu95     Cu     0.729000000000     0.972160000000     0.748430000000     0.852509   
Cu96     Cu     0.729010000000     0.528520000000     0.748430000000     0.845698   
H1       H      0.229000000000     0.451160000000     0.400930000000     0.0443135  
H2       H      0.229020000000     0.049520000000     0.400930000000     0.0439907  
H3       H      0.229010000000     0.049520000000     0.345930000000     0.0439847  
H4       H      0.229000000000     0.451160000000     0.345930000000     0.0443078  
H5       H      0.229010000000     0.049520000000     0.095930000000     0.0444635  
H6       H      0.229000000000     0.451160000000     0.095930000000     0.0447846  
H7       H      0.229000000000     0.451160000000     0.150930000000     0.0444591  
H8       H      0.229020000000     0.049520000000     0.150930000000     0.0441363  
H9       H      0.063450000000     0.457390000000     0.271570000000     0.0159989  
H10      H      0.063460000000     0.043290000000     0.225270000000     0.0158793  
H11      H      0.123420000000     0.043870000000     0.225730000000     0.052472   
H12      H      0.123410000000     0.456810000000     0.271130000000     0.0527332  
H13      H      0.394550000000     0.457380000000     0.225270000000     0.016096   
H14      H      0.394570000000     0.043290000000     0.271560000000     0.0158391  
H15      H      0.334610000000     0.043860000000     0.271120000000     0.0523918  
H16      H      0.334590000000     0.456810000000     0.225730000000     0.0528146  
H17      H      0.063450000000     0.457390000000     0.021570000000     0.0164702  
H18      H      0.063460000000     0.043290000000     0.475270000000     0.0158203  
H19      H      0.123420000000     0.043870000000     0.475730000000     0.0523874  
H20      H      0.123410000000     0.456810000000     0.021130000000     0.0530143  
H21      H      0.334610000000     0.043870000000     0.021120000000     0.0526188  
H22      H      0.334590000000     0.456800000000     0.475730000000     0.0526912  
H23      H      0.394550000000     0.457380000000     0.475270000000     0.0160311  
H24      H      0.394570000000     0.043290000000     0.021560000000     0.0163333  
H25      H      0.031720000000     0.500360000000     0.401070000000     0.0449521  
H26      H      0.426290000000     0.000320000000     0.401070000000     0.0429656  
H27      H      0.426290000000     0.000350000000     0.345760000000     0.0440021  
H28      H      0.031720000000     0.500320000000     0.345750000000     0.0449502  
H29      H      0.426290000000     0.000350000000     0.095760000000     0.0444309  
H30      H      0.031720000000     0.500320000000     0.095750000000     0.0453789  
H31      H      0.031720000000     0.500360000000     0.151070000000     0.0450724  
H32      H      0.426290000000     0.000310000000     0.151070000000     0.0430856  
H33      H      0.926210000000     0.348980000000     0.248710000000     0.0464135  
H34      H      0.531800000000     0.348990000000     0.248050000000     0.0464068  
H35      H      0.531800000000     0.404320000000     0.248060000000     0.040758   
H36      H      0.926220000000     0.404310000000     0.248730000000     0.0407444  
H37      H      0.531800000000     0.151700000000     0.248700000000     0.0463488  
H38      H      0.926220000000     0.151690000000     0.248040000000     0.046344   
H39      H      0.926220000000     0.096360000000     0.248060000000     0.0406755  
H40      H      0.531800000000     0.096370000000     0.248720000000     0.0406723  
H41      H      0.426180000000     0.250330000000     0.400870000000     0.0445272  
H42      H      0.031840000000     0.250340000000     0.400860000000     0.0445093  
H43      H      0.031840000000     0.250340000000     0.345870000000     0.0444974  
H44      H      0.426180000000     0.250330000000     0.345870000000     0.044516   
H45      H      0.031840000000     0.250350000000     0.095860000000     0.0450416  
H46      H      0.426180000000     0.250340000000     0.095870000000     0.0450611  
H47      H      0.426180000000     0.250340000000     0.150870000000     0.0446855  
H48      H      0.031840000000     0.250350000000     0.150860000000     0.0446745  
H49      H      0.426220000000     0.404310000000     0.498720000000     0.0407179  
H50      H      0.031800000000     0.404320000000     0.998060000000     0.040097   
H51      H      0.031800000000     0.348990000000     0.998040000000     0.0459475  
H52      H      0.426220000000     0.348980000000     0.498710000000     0.0463485  
H53      H      0.031800000000     0.151700000000     0.498710000000     0.0462732  
H54      H      0.426220000000     0.151690000000     0.998050000000     0.045895   
H55      H      0.426220000000     0.096360000000     0.998060000000     0.0400664  
H56      H      0.031800000000     0.096370000000     0.498730000000     0.0406194  
H57      H      0.729000000000     0.451160000000     0.400930000000     0.0443145  
H58      H      0.729020000000     0.049520000000     0.400930000000     0.0439917  
H59      H      0.729020000000     0.049520000000     0.345930000000     0.0439855  
H60      H      0.729000000000     0.451160000000     0.345930000000     0.0443087  
H61      H      0.729010000000     0.049520000000     0.095930000000     0.0444645  
H62      H      0.729000000000     0.451160000000     0.095930000000     0.0447856  
H63      H      0.729000000000     0.451160000000     0.150930000000     0.0444601  
H64      H      0.729020000000     0.049520000000     0.150930000000     0.0441374  
H65      H      0.563450000000     0.457390000000     0.271570000000     0.015982   
H66      H      0.563460000000     0.043290000000     0.225270000000     0.0158731  
H67      H      0.623420000000     0.043870000000     0.225730000000     0.0524689  
H68      H      0.623410000000     0.456810000000     0.271130000000     0.0527408  
H69      H      0.894550000000     0.457380000000     0.225270000000     0.0160923  
H70      H      0.894570000000     0.043290000000     0.271560000000     0.0158443  
H71      H      0.834610000000     0.043860000000     0.271120000000     0.0523895  
H72      H      0.834590000000     0.456810000000     0.225730000000     0.0528123  
H73      H      0.563450000000     0.457390000000     0.021570000000     0.0164632  
H74      H      0.563460000000     0.043290000000     0.475270000000     0.0158141  
H75      H      0.623420000000     0.043870000000     0.475730000000     0.0523842  
H76      H      0.623410000000     0.456810000000     0.021130000000     0.0530126  
H77      H      0.834610000000     0.043870000000     0.021120000000     0.0525932  
H78      H      0.834590000000     0.456800000000     0.475730000000     0.0526881  
H79      H      0.894550000000     0.457380000000     0.475270000000     0.016035   
H80      H      0.894570000000     0.043290000000     0.021560000000     0.0163461  
H81      H      0.531720000000     0.500360000000     0.401070000000     0.0449696  
H82      H      0.926290000000     0.000320000000     0.401070000000     0.0429607  
H83      H      0.926290000000     0.000350000000     0.345760000000     0.0439972  
H84      H      0.531720000000     0.500320000000     0.345750000000     0.0449681  
H85      H      0.926290000000     0.000350000000     0.095760000000     0.0444255  
H86      H      0.531720000000     0.500320000000     0.095750000000     0.0453952  
H87      H      0.531720000000     0.500360000000     0.151070000000     0.04509    
H88      H      0.926290000000     0.000310000000     0.151070000000     0.0430806  
H89      H      0.426210000000     0.348980000000     0.248710000000     0.04638    
H90      H      0.031800000000     0.348990000000     0.248050000000     0.0464023  
H91      H      0.031800000000     0.404320000000     0.248060000000     0.0407185  
H92      H      0.426220000000     0.404310000000     0.248730000000     0.0407826  
H93      H      0.031800000000     0.151700000000     0.248700000000     0.0463304  
H94      H      0.426220000000     0.151690000000     0.248040000000     0.0463492  
H95      H      0.426220000000     0.096360000000     0.248060000000     0.0406804  
H96      H      0.031800000000     0.096370000000     0.248720000000     0.0406555  
H97      H      0.926180000000     0.250330000000     0.400870000000     0.0445222  
H98      H      0.531840000000     0.250340000000     0.400860000000     0.0445264  
H99      H      0.531840000000     0.250340000000     0.345870000000     0.0445145  
H100     H      0.926180000000     0.250330000000     0.345870000000     0.0445111  
H101     H      0.531840000000     0.250350000000     0.095870000000     0.0450606  
H102     H      0.926180000000     0.250340000000     0.095870000000     0.0450526  
H103     H      0.926180000000     0.250340000000     0.150860000000     0.0446825  
H104     H      0.531840000000     0.250350000000     0.150860000000     0.044688   
H105     H      0.926220000000     0.404310000000     0.498720000000     0.0407188  
H106     H      0.531800000000     0.404320000000     0.998060000000     0.0401228  
H107     H      0.531800000000     0.348990000000     0.998040000000     0.0459568  
H108     H      0.926210000000     0.348980000000     0.498710000000     0.0463202  
H109     H      0.531800000000     0.151700000000     0.498710000000     0.0462902  
H110     H      0.926220000000     0.151690000000     0.998050000000     0.0458898  
H111     H      0.926220000000     0.096360000000     0.998060000000     0.0400613  
H112     H      0.531800000000     0.096370000000     0.498730000000     0.0406361  
H113     H      0.229000000000     0.451160000000     0.900930000000     0.0442277  
H114     H      0.229020000000     0.049520000000     0.900930000000     0.0439055  
H115     H      0.229010000000     0.049520000000     0.845930000000     0.0439463  
H116     H      0.229000000000     0.451160000000     0.845930000000     0.0442685  
H117     H      0.229010000000     0.049520000000     0.595930000000     0.0439822  
H118     H      0.229000000000     0.451160000000     0.595930000000     0.0443039  
H119     H      0.229000000000     0.451160000000     0.650930000000     0.0443204  
H120     H      0.229020000000     0.049520000000     0.650930000000     0.0439978  
H121     H      0.063450000000     0.457390000000     0.771570000000     0.0159707  
H122     H      0.063460000000     0.043290000000     0.725270000000     0.0158296  
H123     H      0.123420000000     0.043870000000     0.725730000000     0.0523847  
H124     H      0.123410000000     0.456810000000     0.771130000000     0.0527424  
H125     H      0.394550000000     0.457380000000     0.725270000000     0.0160079  
H126     H      0.394570000000     0.043290000000     0.771570000000     0.0158373  
H127     H      0.334610000000     0.043860000000     0.771120000000     0.0523606  
H128     H      0.334590000000     0.456810000000     0.725730000000     0.0527439  
H129     H      0.063450000000     0.457390000000     0.521570000000     0.0159731  
H130     H      0.063460000000     0.043290000000     0.975270000000     0.0157112  
H131     H      0.123420000000     0.043870000000     0.975730000000     0.0520412  
H132     H      0.123410000000     0.456810000000     0.521130000000     0.0527508  
H133     H      0.334610000000     0.043870000000     0.521120000000     0.0523112  
H134     H      0.334590000000     0.456800000000     0.975730000000     0.0523399  
H135     H      0.394550000000     0.457380000000     0.975270000000     0.0159217  
H136     H      0.394570000000     0.043290000000     0.521560000000     0.0158602  
H137     H      0.031720000000     0.500360000000     0.901070000000     0.0449339  
H138     H      0.426290000000     0.000320000000     0.901070000000     0.0429479  
H139     H      0.426290000000     0.000350000000     0.845760000000     0.0439959  
H140     H      0.031720000000     0.500330000000     0.845750000000     0.0449449  
H141     H      0.426290000000     0.000350000000     0.595760000000     0.0440127  
H142     H      0.031720000000     0.500320000000     0.595750000000     0.0449629  
H143     H      0.031720000000     0.500360000000     0.651070000000     0.0449628  
H144     H      0.426290000000     0.000310000000     0.651070000000     0.0429764  
H145     H      0.926210000000     0.348980000000     0.748710000000     0.0463533  
H146     H      0.531800000000     0.348990000000     0.748050000000     0.0463539  
H147     H      0.531800000000     0.404320000000     0.748060000000     0.0406989  
H148     H      0.926220000000     0.404310000000     0.748730000000     0.0407124  
H149     H      0.531800000000     0.151700000000     0.748700000000     0.0462889  
H150     H      0.926220000000     0.151690000000     0.748040000000     0.0462853  
H151     H      0.926220000000     0.096360000000     0.748060000000     0.0406355  
H152     H      0.531800000000     0.096370000000     0.748720000000     0.0406397  
H153     H      0.426180000000     0.250330000000     0.900870000000     0.0444592  
H154     H      0.031840000000     0.250340000000     0.900860000000     0.0444484  
H155     H      0.031840000000     0.250340000000     0.845870000000     0.0444652  
H156     H      0.426180000000     0.250330000000     0.845870000000     0.0444791  
H157     H      0.031840000000     0.250350000000     0.595870000000     0.0444932  
H158     H      0.426180000000     0.250340000000     0.595870000000     0.0445107  
H159     H      0.426180000000     0.250340000000     0.650870000000     0.0445328  
H160     H      0.031840000000     0.250350000000     0.650860000000     0.044516   
H161     H      0.426220000000     0.404310000000     0.998720000000     0.0404038  
H162     H      0.031800000000     0.404320000000     0.498060000000     0.0406803  
H163     H      0.031800000000     0.348990000000     0.498040000000     0.0463333  
H164     H      0.426220000000     0.348980000000     0.998710000000     0.045998   
H165     H      0.031800000000     0.151700000000     0.998710000000     0.0459236  
H166     H      0.426220000000     0.151690000000     0.498050000000     0.0462909  
H167     H      0.426220000000     0.096360000000     0.498060000000     0.0406375  
H168     H      0.031800000000     0.096370000000     0.998730000000     0.040306   
H169     H      0.729000000000     0.451160000000     0.900930000000     0.0442288  
H170     H      0.729020000000     0.049520000000     0.900930000000     0.0439066  
H171     H      0.729010000000     0.049520000000     0.845930000000     0.0439472  
H172     H      0.729000000000     0.451160000000     0.845930000000     0.0442696  
H173     H      0.729010000000     0.049520000000     0.595930000000     0.0439833  
H174     H      0.729000000000     0.451160000000     0.595930000000     0.0443048  
H175     H      0.729000000000     0.451160000000     0.650930000000     0.0443214  
H176     H      0.729010000000     0.049520000000     0.650930000000     0.0439986  
H177     H      0.563450000000     0.457390000000     0.771570000000     0.0159517  
H178     H      0.563470000000     0.043290000000     0.725270000000     0.0158129  
H179     H      0.623420000000     0.043870000000     0.725730000000     0.0523822  
H180     H      0.623410000000     0.456810000000     0.771130000000     0.0527505  
H181     H      0.894550000000     0.457380000000     0.725270000000     0.0159884  
H182     H      0.894570000000     0.043290000000     0.771570000000     0.0158399  
H183     H      0.834610000000     0.043860000000     0.771120000000     0.0523595  
H184     H      0.834590000000     0.456810000000     0.725730000000     0.0527498  
H185     H      0.563450000000     0.457390000000     0.521570000000     0.0159569  
H186     H      0.563470000000     0.043290000000     0.975270000000     0.0156927  
H187     H      0.623420000000     0.043870000000     0.975730000000     0.0520408  
H188     H      0.623410000000     0.456810000000     0.521130000000     0.052759   
H189     H      0.834610000000     0.043870000000     0.521120000000     0.0523092  
H190     H      0.834590000000     0.456800000000     0.975730000000     0.0523336  
H191     H      0.894550000000     0.457380000000     0.975270000000     0.0159304  
H192     H      0.894570000000     0.043290000000     0.521560000000     0.0158654  
H193     H      0.531720000000     0.500360000000     0.901070000000     0.0449502  
H194     H      0.926290000000     0.000320000000     0.901070000000     0.0429431  
H195     H      0.926290000000     0.000350000000     0.845760000000     0.0439909  
H196     H      0.531720000000     0.500330000000     0.845750000000     0.0449616  
H197     H      0.926290000000     0.000350000000     0.595760000000     0.0440078  
H198     H      0.531720000000     0.500320000000     0.595750000000     0.0449806  
H199     H      0.531720000000     0.500360000000     0.651070000000     0.0449811  
H200     H      0.926290000000     0.000310000000     0.651070000000     0.0429704  
H201     H      0.426220000000     0.348980000000     0.748710000000     0.0463499  
H202     H      0.031800000000     0.348990000000     0.748050000000     0.0463395  
H203     H      0.031800000000     0.404320000000     0.748060000000     0.0406787  
H204     H      0.426220000000     0.404310000000     0.748730000000     0.0407222  
H205     H      0.031800000000     0.151700000000     0.748700000000     0.0462722  
H206     H      0.426220000000     0.151690000000     0.748040000000     0.04629    
H207     H      0.426220000000     0.096360000000     0.748060000000     0.0406408  
H208     H      0.031800000000     0.096370000000     0.748720000000     0.0406218  
H209     H      0.926180000000     0.250330000000     0.900870000000     0.0444614  
H210     H      0.531840000000     0.250340000000     0.900860000000     0.0444584  
H211     H      0.531840000000     0.250340000000     0.845870000000     0.0444776  
H212     H      0.926180000000     0.250330000000     0.845870000000     0.0444789  
H213     H      0.531840000000     0.250350000000     0.595870000000     0.0445103  
H214     H      0.926180000000     0.250340000000     0.595870000000     0.0445057  
H215     H      0.926180000000     0.250340000000     0.650870000000     0.0445278  
H216     H      0.531840000000     0.250350000000     0.650860000000     0.0445331  
H217     H      0.926220000000     0.404310000000     0.998720000000     0.040364   
H218     H      0.531800000000     0.404320000000     0.498060000000     0.040696   
H219     H      0.531800000000     0.348990000000     0.498040000000     0.0463534  
H220     H      0.926210000000     0.348980000000     0.998710000000     0.0460144  
H221     H      0.531800000000     0.151700000000     0.998710000000     0.0459409  
H222     H      0.926220000000     0.151690000000     0.498050000000     0.0462858  
H223     H      0.926220000000     0.096360000000     0.498060000000     0.0406326  
H224     H      0.531800000000     0.096370000000     0.998730000000     0.0403236  
H225     H      0.229000000000     0.951160000000     0.400930000000     0.0436486  
H226     H      0.229020000000     0.549520000000     0.400930000000     0.0442735  
H227     H      0.229010000000     0.549520000000     0.345930000000     0.0442672  
H228     H      0.229000000000     0.951160000000     0.345930000000     0.0436419  
H229     H      0.229010000000     0.549520000000     0.095930000000     0.0447442  
H230     H      0.229000000000     0.951160000000     0.095930000000     0.0441198  
H231     H      0.229000000000     0.951160000000     0.150930000000     0.0437931  
H232     H      0.229020000000     0.549520000000     0.150930000000     0.044418   
H233     H      0.063450000000     0.957390000000     0.271570000000     0.0157491  
H234     H      0.063460000000     0.543290000000     0.225270000000     0.0160095  
H235     H      0.123420000000     0.543870000000     0.225730000000     0.0528134  
H236     H      0.123410000000     0.956810000000     0.271130000000     0.052404   
H237     H      0.394550000000     0.957380000000     0.225270000000     0.0158223  
H238     H      0.394570000000     0.543290000000     0.271560000000     0.0159798  
H239     H      0.334610000000     0.543860000000     0.271120000000     0.0527339  
H240     H      0.334590000000     0.956810000000     0.225730000000     0.0524651  
H241     H      0.063450000000     0.957390000000     0.021570000000     0.0162152  
H242     H      0.063460000000     0.543290000000     0.475270000000     0.0159494  
H243     H      0.123420000000     0.543870000000     0.475730000000     0.0527275  
H244     H      0.123410000000     0.956810000000     0.021130000000     0.0526824  
H245     H      0.334610000000     0.543870000000     0.021120000000     0.052957   
H246     H      0.334590000000     0.956810000000     0.475730000000     0.0523518  
H247     H      0.394550000000     0.957380000000     0.475270000000     0.0157837  
H248     H      0.394570000000     0.543290000000     0.021560000000     0.0164712  
H249     H      0.031720000000     0.000360000000     0.401070000000     0.0439987  
H250     H      0.426290000000     0.500320000000     0.401070000000     0.0449567  
H251     H      0.426290000000     0.500350000000     0.345760000000     0.0449572  
H252     H      0.031720000000     0.000330000000     0.345750000000     0.0429613  
H253     H      0.426290000000     0.500350000000     0.095760000000     0.0453844  
H254     H      0.031720000000     0.000320000000     0.095750000000     0.0433931  
H255     H      0.031720000000     0.000360000000     0.151070000000     0.044121   
H256     H      0.426290000000     0.500310000000     0.151070000000     0.0450754  
H257     H      0.926210000000     0.848980000000     0.248710000000     0.0465613  
H258     H      0.531800000000     0.848990000000     0.248050000000     0.0465732  
H259     H      0.531800000000     0.904320000000     0.248060000000     0.0417135  
H260     H      0.926220000000     0.904310000000     0.248730000000     0.0417247  
H261     H      0.531800000000     0.651700000000     0.248700000000     0.0463754  
H262     H      0.926220000000     0.651690000000     0.248040000000     0.0463718  
H263     H      0.926220000000     0.596360000000     0.248060000000     0.0406803  
H264     H      0.531800000000     0.596370000000     0.248720000000     0.0406783  
H265     H      0.426180000000     0.750330000000     0.400870000000     0.0445759  
H266     H      0.031840000000     0.750340000000     0.400860000000     0.0445589  
H267     H      0.031840000000     0.750340000000     0.345870000000     0.0445459  
H268     H      0.426180000000     0.750330000000     0.345870000000     0.0445652  
H269     H      0.031840000000     0.750350000000     0.095860000000     0.0450893  
H270     H      0.426180000000     0.750340000000     0.095870000000     0.045109   
H271     H      0.426180000000     0.750340000000     0.150870000000     0.0447332  
H272     H      0.031840000000     0.750350000000     0.150860000000     0.0447222  
H273     H      0.426220000000     0.904310000000     0.498720000000     0.0416927  
H274     H      0.031800000000     0.904320000000     0.998060000000     0.0410783  
H275     H      0.031800000000     0.848990000000     0.998040000000     0.0461205  
H276     H      0.426210000000     0.848980000000     0.498710000000     0.0465072  
H277     H      0.031800000000     0.651700000000     0.498710000000     0.0462975  
H278     H      0.426220000000     0.651690000000     0.998050000000     0.0459213  
H279     H      0.426220000000     0.596360000000     0.998060000000     0.0400712  
H280     H      0.031800000000     0.596370000000     0.498730000000     0.0406255  
H281     H      0.729000000000     0.951160000000     0.400930000000     0.0436496  
H282     H      0.729020000000     0.549520000000     0.400930000000     0.0442745  
H283     H      0.729020000000     0.549520000000     0.345930000000     0.0442678  
H284     H      0.729000000000     0.951160000000     0.345930000000     0.0436428  
H285     H      0.729010000000     0.549520000000     0.095930000000     0.0447452  
H286     H      0.729000000000     0.951160000000     0.095930000000     0.0441207  
H287     H      0.729000000000     0.951160000000     0.150930000000     0.043794   
H288     H      0.729020000000     0.549520000000     0.150930000000     0.0444189  
H289     H      0.563450000000     0.957390000000     0.271570000000     0.0157425  
H290     H      0.563460000000     0.543290000000     0.225270000000     0.0159944  
H291     H      0.623420000000     0.543870000000     0.225730000000     0.0528212  
H292     H      0.623410000000     0.956810000000     0.271130000000     0.0524007  
H293     H      0.894550000000     0.957380000000     0.225270000000     0.0158276  
H294     H      0.894570000000     0.543290000000     0.271560000000     0.0159813  
H295     H      0.834610000000     0.543860000000     0.271120000000     0.0527315  
H296     H      0.834590000000     0.956810000000     0.225730000000     0.0524629  
H297     H      0.563450000000     0.957390000000     0.021570000000     0.0162081  
H298     H      0.563460000000     0.543290000000     0.475270000000     0.015933   
H299     H      0.623420000000     0.543870000000     0.475730000000     0.0527358  
H300     H      0.623410000000     0.956810000000     0.021130000000     0.0526808  
H301     H      0.834610000000     0.543870000000     0.021120000000     0.0529317  
H302     H      0.834590000000     0.956810000000     0.475730000000     0.0523498  
H303     H      0.894550000000     0.957380000000     0.475270000000     0.0157892  
H304     H      0.894570000000     0.543290000000     0.021560000000     0.0164838  
H305     H      0.531720000000     0.000360000000     0.401070000000     0.0440146  
H306     H      0.926290000000     0.500320000000     0.401070000000     0.0449516  
H307     H      0.926290000000     0.500350000000     0.345760000000     0.0449513  
H308     H      0.531720000000     0.000330000000     0.345750000000     0.0429771  
H309     H      0.926290000000     0.500350000000     0.095760000000     0.0453789  
H310     H      0.531720000000     0.000320000000     0.095750000000     0.043409   
H311     H      0.531720000000     0.000360000000     0.151070000000     0.0441369  
H312     H      0.926290000000     0.500310000000     0.151070000000     0.0450699  
H313     H      0.426210000000     0.848980000000     0.248710000000     0.0465528  
H314     H      0.031800000000     0.848990000000     0.248050000000     0.0465741  
H315     H      0.031800000000     0.904320000000     0.248060000000     0.0416907  
H316     H      0.426220000000     0.904310000000     0.248730000000     0.0417357  
H317     H      0.031800000000     0.651700000000     0.248700000000     0.0463587  
H318     H      0.426220000000     0.651690000000     0.248040000000     0.0463768  
H319     H      0.426220000000     0.596360000000     0.248060000000     0.0406855  
H320     H      0.031800000000     0.596370000000     0.248720000000     0.0406602  
H321     H      0.926180000000     0.750330000000     0.400870000000     0.0445709  
H322     H      0.531840000000     0.750340000000     0.400860000000     0.0445759  
H323     H      0.531840000000     0.750340000000     0.345870000000     0.044562   
H324     H      0.926180000000     0.750330000000     0.345870000000     0.0445605  
H325     H      0.531840000000     0.750350000000     0.095870000000     0.0451074  
H326     H      0.926180000000     0.750340000000     0.095870000000     0.0451028  
H327     H      0.926180000000     0.750340000000     0.150870000000     0.0447293  
H328     H      0.531840000000     0.750350000000     0.150860000000     0.044736   
H329     H      0.926220000000     0.904310000000     0.498720000000     0.0416811  
H330     H      0.531800000000     0.904320000000     0.998060000000     0.0410951  
H331     H      0.531800000000     0.848990000000     0.998040000000     0.0461378  
H332     H      0.926220000000     0.848980000000     0.498710000000     0.046526   
H333     H      0.531800000000     0.651700000000     0.498710000000     0.0463162  
H334     H      0.926220000000     0.651690000000     0.998050000000     0.045916   
H335     H      0.926220000000     0.596360000000     0.998060000000     0.0400662  
H336     H      0.531800000000     0.596370000000     0.498730000000     0.0406428  
H337     H      0.229000000000     0.951160000000     0.900930000000     0.0435639  
H338     H      0.229020000000     0.549520000000     0.900930000000     0.0441873  
H339     H      0.229010000000     0.549520000000     0.845930000000     0.0442291  
H340     H      0.229000000000     0.951160000000     0.845930000000     0.0436033  
H341     H      0.229010000000     0.549520000000     0.595930000000     0.044265   
H342     H      0.229000000000     0.951160000000     0.595930000000     0.0436393  
H343     H      0.229000000000     0.951160000000     0.650930000000     0.043655   
H344     H      0.229020000000     0.549520000000     0.650930000000     0.0442809  
H345     H      0.063450000000     0.957390000000     0.771570000000     0.01573    
H346     H      0.063460000000     0.543290000000     0.725270000000     0.0159556  
H347     H      0.123420000000     0.543870000000     0.725730000000     0.0527338  
H348     H      0.123410000000     0.956810000000     0.771130000000     0.0523788  
H349     H      0.394550000000     0.957380000000     0.725270000000     0.0157712  
H350     H      0.394570000000     0.543290000000     0.771570000000     0.0159668  
H351     H      0.334610000000     0.543870000000     0.771120000000     0.0526867  
H352     H      0.334590000000     0.956810000000     0.725730000000     0.0523831  
H353     H      0.063450000000     0.957390000000     0.521570000000     0.0157393  
H354     H      0.063460000000     0.543290000000     0.975270000000     0.0158504  
H355     H      0.123420000000     0.543870000000     0.975730000000     0.052356   
H356     H      0.123410000000     0.956810000000     0.521130000000     0.0523667  
H357     H      0.334610000000     0.543870000000     0.521120000000     0.0526596  
H358     H      0.334590000000     0.956810000000     0.975730000000     0.0520213  
H359     H      0.394550000000     0.957380000000     0.975270000000     0.0156519  
H360     H      0.394570000000     0.543290000000     0.521560000000     0.0159899  
H361     H      0.031720000000     0.000360000000     0.901070000000     0.0439812  
H362     H      0.426290000000     0.500320000000     0.901070000000     0.0449383  
H363     H      0.426290000000     0.500350000000     0.845760000000     0.0449482  
H364     H      0.031720000000     0.000330000000     0.845750000000     0.0429567  
H365     H      0.426290000000     0.500350000000     0.595760000000     0.0449669  
H366     H      0.031720000000     0.000320000000     0.595750000000     0.0429722  
H367     H      0.031720000000     0.000360000000     0.651070000000     0.0440095  
H368     H      0.426290000000     0.500310000000     0.651070000000     0.0449667  
H369     H      0.926210000000     0.848980000000     0.748710000000     0.0465355  
H370     H      0.531800000000     0.848990000000     0.748050000000     0.0465248  
H371     H      0.531800000000     0.904320000000     0.748060000000     0.0416852  
H372     H      0.926220000000     0.904310000000     0.748730000000     0.0416797  
H373     H      0.531800000000     0.651700000000     0.748700000000     0.046309   
H374     H      0.926220000000     0.651690000000     0.748040000000     0.046303   
H375     H      0.926220000000     0.596360000000     0.748060000000     0.0406511  
H376     H      0.531800000000     0.596370000000     0.748720000000     0.0406569  
H377     H      0.426180000000     0.750330000000     0.900870000000     0.0445077  
H378     H      0.031840000000     0.750340000000     0.900860000000     0.044498   
H379     H      0.031840000000     0.750340000000     0.845870000000     0.0445138  
H380     H      0.426180000000     0.750330000000     0.845870000000     0.0445286  
H381     H      0.031840000000     0.750350000000     0.595870000000     0.0445419  
H382     H      0.426180000000     0.750340000000     0.595870000000     0.0445603  
H383     H      0.426180000000     0.750340000000     0.650870000000     0.0445815  
H384     H      0.031840000000     0.750350000000     0.650860000000     0.0445657  
H385     H      0.426220000000     0.904310000000     0.998720000000     0.0413769  
H386     H      0.031800000000     0.904320000000     0.498060000000     0.0416467  
H387     H      0.031800000000     0.848990000000     0.498040000000     0.0465213  
H388     H      0.426210000000     0.848980000000     0.998710000000     0.0461562  
H389     H      0.031800000000     0.651700000000     0.998710000000     0.0459494  
H390     H      0.426220000000     0.651690000000     0.498050000000     0.0463179  
H391     H      0.426220000000     0.596360000000     0.498060000000     0.0406431  
H392     H      0.031800000000     0.596370000000     0.998730000000     0.04031    
H393     H      0.729000000000     0.951160000000     0.900930000000     0.0435649  
H394     H      0.729020000000     0.549520000000     0.900930000000     0.0441884  
H395     H      0.729020000000     0.549520000000     0.845930000000     0.0442299  
H396     H      0.729000000000     0.951160000000     0.845930000000     0.0436042  
H397     H      0.729010000000     0.549520000000     0.595930000000     0.0442659  
H398     H      0.729000000000     0.951160000000     0.595930000000     0.0436404  
H399     H      0.729000000000     0.951160000000     0.650930000000     0.0436559  
H400     H      0.729020000000     0.549520000000     0.650930000000     0.0442819  
H401     H      0.563450000000     0.957390000000     0.771570000000     0.0157207  
H402     H      0.563460000000     0.543290000000     0.725270000000     0.0159392  
H403     H      0.623420000000     0.543870000000     0.725730000000     0.0527421  
H404     H      0.623410000000     0.956810000000     0.771130000000     0.0523754  
H405     H      0.894550000000     0.957380000000     0.725270000000     0.0157665  
H406     H      0.894570000000     0.543290000000     0.771570000000     0.0159924  
H407     H      0.834610000000     0.543870000000     0.771120000000     0.0526747  
H408     H      0.834590000000     0.956810000000     0.725730000000     0.0523818  
H409     H      0.563450000000     0.957390000000     0.521570000000     0.015733   
H410     H      0.563460000000     0.543290000000     0.975270000000     0.0158438  
H411     H      0.623420000000     0.543870000000     0.975730000000     0.0523545  
H412     H      0.623410000000     0.956810000000     0.521130000000     0.0523636  
H413     H      0.834610000000     0.543870000000     0.521120000000     0.0526564  
H414     H      0.834590000000     0.956810000000     0.975730000000     0.0520149  
H415     H      0.894550000000     0.957380000000     0.975270000000     0.0156604  
H416     H      0.894570000000     0.543290000000     0.521560000000     0.0159939  
H417     H      0.531720000000     0.000360000000     0.901070000000     0.0439972  
H418     H      0.926290000000     0.500320000000     0.901070000000     0.0449333  
H419     H      0.926290000000     0.500350000000     0.845760000000     0.0449447  
H420     H      0.531720000000     0.000330000000     0.845750000000     0.0429723  
H421     H      0.926290000000     0.500350000000     0.595760000000     0.0449616  
H422     H      0.531720000000     0.000320000000     0.595750000000     0.0429881  
H423     H      0.531720000000     0.000360000000     0.651070000000     0.0440266  
H424     H      0.926290000000     0.500310000000     0.651070000000     0.0449601  
H425     H      0.426210000000     0.848980000000     0.748710000000     0.0465018  
H426     H      0.031800000000     0.848990000000     0.748050000000     0.0465209  
H427     H      0.031800000000     0.904320000000     0.748060000000     0.0416471  
H428     H      0.426220000000     0.904310000000     0.748730000000     0.0417176  
H429     H      0.031800000000     0.651700000000     0.748700000000     0.046292   
H430     H      0.426220000000     0.651690000000     0.748040000000     0.046308   
H431     H      0.426220000000     0.596360000000     0.748060000000     0.0406571  
H432     H      0.031800000000     0.596370000000     0.748720000000     0.0406389  
H433     H      0.926180000000     0.750330000000     0.900870000000     0.0445099  
H434     H      0.531840000000     0.750340000000     0.900860000000     0.0445079  
H435     H      0.531840000000     0.750340000000     0.845870000000     0.0445262  
H436     H      0.926180000000     0.750330000000     0.845870000000     0.0445284  
H437     H      0.531840000000     0.750350000000     0.595870000000     0.044559   
H438     H      0.926180000000     0.750340000000     0.595870000000     0.0445554  
H439     H      0.926180000000     0.750340000000     0.650870000000     0.0445765  
H440     H      0.531840000000     0.750350000000     0.650860000000     0.0445828  
H441     H      0.926220000000     0.904310000000     0.998720000000     0.0413718  
H442     H      0.531800000000     0.904320000000     0.498060000000     0.0416663  
H443     H      0.531800000000     0.848990000000     0.498040000000     0.0465342  
H444     H      0.926210000000     0.848980000000     0.998710000000     0.0461509  
H445     H      0.531800000000     0.651700000000     0.998710000000     0.0459667  
H446     H      0.926220000000     0.651690000000     0.498050000000     0.0463114  
H447     H      0.926220000000     0.596360000000     0.498060000000     0.0406389  
H448     H      0.531800000000     0.596370000000     0.998730000000     0.0403268  
O1       O      0.006300000000     0.250330000000     0.452720000000    -0.38828    
O2       O      0.006300000000     0.250350000000     0.044010000000    -0.385888   
O3       O      0.006290000000     0.204250000000     0.998380000000    -0.383515   
O4       O      0.006290000000     0.296430000000     0.498350000000    -0.383235   
O5       O      0.451730000000     0.296430000000     0.498370000000    -0.383403   
O6       O      0.451730000000     0.204240000000     0.998360000000    -0.383615   
O7       O      0.451720000000     0.250330000000     0.044010000000    -0.386034   
O8       O      0.451720000000     0.250340000000     0.452720000000    -0.38844    
O9       O      0.006300000000     0.250350000000     0.294010000000    -0.38831    
O10      O      0.006300000000     0.250330000000     0.202720000000    -0.388202   
O11      O      0.006290000000     0.296430000000     0.248360000000    -0.38318    
O12      O      0.006290000000     0.204250000000     0.248370000000    -0.383266   
O13      O      0.451730000000     0.204240000000     0.248360000000    -0.383431   
O14      O      0.451730000000     0.296430000000     0.248380000000    -0.383274   
O15      O      0.451720000000     0.250340000000     0.202720000000    -0.38837    
O16      O      0.451720000000     0.250330000000     0.294010000000    -0.388453   
O17      O      0.452080000000     0.456770000000     0.999050000000    -0.462797   
O18      O      0.452080000000     0.043900000000     0.497760000000    -0.460343   
O19      O      0.452020000000     0.999870000000     0.454370000000    -0.426005   
O20      O      0.452020000000     0.500800000000     0.042460000000    -0.441856   
O21      O      0.005990000000     0.999880000000     0.042460000000    -0.423594   
O22      O      0.005990000000     0.000800000000     0.454370000000    -0.44018    
O23      O      0.005940000000     0.043900000000     0.499050000000    -0.460173   
O24      O      0.005940000000     0.456780000000     0.997760000000    -0.463064   
O25      O      0.452070000000     0.456770000000     0.249050000000    -0.462453   
O26      O      0.452080000000     0.043900000000     0.247760000000    -0.46033    
O27      O      0.452020000000     0.999870000000     0.204370000000    -0.425977   
O28      O      0.452020000000     0.500800000000     0.292460000000    -0.444278   
O29      O      0.005990000000     0.999880000000     0.292460000000    -0.42598    
O30      O      0.005990000000     0.000800000000     0.204370000000    -0.440123   
O31      O      0.005940000000     0.043900000000     0.249050000000    -0.460167   
O32      O      0.005940000000     0.456780000000     0.247760000000    -0.462574   
O33      O      0.229610000000     0.474940000000     0.044070000000    -0.386023   
O34      O      0.228400000000     0.474940000000     0.452790000000    -0.388563   
O35      O      0.278510000000     0.474930000000     0.497690000000    -0.380707   
O36      O      0.179500000000     0.474940000000     0.999180000000    -0.381864   
O37      O      0.179500000000     0.025750000000     0.997690000000    -0.37904    
O38      O      0.278520000000     0.025740000000     0.499180000000    -0.378627   
O39      O      0.229620000000     0.025740000000     0.452790000000    -0.38635    
O40      O      0.228400000000     0.025740000000     0.044070000000    -0.383819   
O41      O      0.229610000000     0.474940000000     0.294070000000    -0.388447   
O42      O      0.228400000000     0.474940000000     0.202790000000    -0.388494   
O43      O      0.278510000000     0.474930000000     0.247690000000    -0.38067    
O44      O      0.179500000000     0.474930000000     0.249180000000    -0.380789   
O45      O      0.179500000000     0.025750000000     0.247690000000    -0.378569   
O46      O      0.278520000000     0.025740000000     0.249180000000    -0.378592   
O47      O      0.229620000000     0.025740000000     0.202790000000    -0.386286   
O48      O      0.228400000000     0.025740000000     0.294070000000    -0.386243   
O49      O      0.506300000000     0.250330000000     0.452720000000    -0.388446   
O50      O      0.506300000000     0.250350000000     0.044010000000    -0.38605    
O51      O      0.506290000000     0.204250000000     0.998380000000    -0.383681   
O52      O      0.506290000000     0.296430000000     0.498350000000    -0.383399   
O53      O      0.951730000000     0.296430000000     0.498370000000    -0.383361   
O54      O      0.951730000000     0.204240000000     0.998360000000    -0.383571   
O55      O      0.951720000000     0.250330000000     0.044010000000    -0.38599    
O56      O      0.951720000000     0.250340000000     0.452720000000    -0.388395   
O57      O      0.506300000000     0.250350000000     0.294010000000    -0.388476   
O58      O      0.506300000000     0.250330000000     0.202720000000    -0.388368   
O59      O      0.506290000000     0.296430000000     0.248360000000    -0.383352   
O60      O      0.506290000000     0.204250000000     0.248370000000    -0.383432   
O61      O      0.951730000000     0.204240000000     0.248360000000    -0.383387   
O62      O      0.951730000000     0.296430000000     0.248380000000    -0.383224   
O63      O      0.951720000000     0.250340000000     0.202720000000    -0.388321   
O64      O      0.951720000000     0.250330000000     0.294010000000    -0.388408   
O65      O      0.952080000000     0.456770000000     0.999050000000    -0.462753   
O66      O      0.952080000000     0.043900000000     0.497760000000    -0.460293   
O67      O      0.952020000000     0.999870000000     0.454370000000    -0.425959   
O68      O      0.952020000000     0.500800000000     0.042460000000    -0.441809   
O69      O      0.505990000000     0.999880000000     0.042460000000    -0.423769   
O70      O      0.505990000000     0.000800000000     0.454370000000    -0.440357   
O71      O      0.505940000000     0.043900000000     0.499050000000    -0.46035    
O72      O      0.505940000000     0.456780000000     0.997760000000    -0.463236   
O73      O      0.952080000000     0.456770000000     0.249050000000    -0.462573   
O74      O      0.952080000000     0.043900000000     0.247760000000    -0.46028    
O75      O      0.952020000000     0.999870000000     0.204370000000    -0.425931   
O76      O      0.952020000000     0.500800000000     0.292460000000    -0.444234   
O77      O      0.505990000000     0.999880000000     0.292460000000    -0.426155   
O78      O      0.505990000000     0.000800000000     0.204370000000    -0.440299   
O79      O      0.505940000000     0.043900000000     0.249050000000    -0.460343   
O80      O      0.505940000000     0.456780000000     0.247760000000    -0.462695   
O81      O      0.729610000000     0.474940000000     0.044070000000    -0.386024   
O82      O      0.728400000000     0.474940000000     0.452790000000    -0.388561   
O83      O      0.778510000000     0.474930000000     0.497690000000    -0.380793   
O84      O      0.679500000000     0.474940000000     0.999180000000    -0.381778   
O85      O      0.679500000000     0.025750000000     0.997690000000    -0.379027   
O86      O      0.778520000000     0.025740000000     0.499180000000    -0.378627   
O87      O      0.729620000000     0.025740000000     0.452790000000    -0.386349   
O88      O      0.728400000000     0.025740000000     0.044070000000    -0.383818   
O89      O      0.729610000000     0.474940000000     0.294070000000    -0.388448   
O90      O      0.728400000000     0.474940000000     0.202790000000    -0.388492   
O91      O      0.778510000000     0.474930000000     0.247690000000    -0.380756   
O92      O      0.679500000000     0.474930000000     0.249180000000    -0.3807     
O93      O      0.679500000000     0.025750000000     0.247690000000    -0.378569   
O94      O      0.778520000000     0.025740000000     0.249180000000    -0.378592   
O95      O      0.729620000000     0.025740000000     0.202790000000    -0.386285   
O96      O      0.728400000000     0.025740000000     0.294070000000    -0.386242   
O97      O      0.006300000000     0.250330000000     0.952720000000    -0.387879   
O98      O      0.006300000000     0.250350000000     0.544010000000    -0.388307   
O99      O      0.006290000000     0.204250000000     0.498380000000    -0.383289   
O100     O      0.006290000000     0.296430000000     0.998350000000    -0.383471   
O101     O      0.451730000000     0.296430000000     0.998370000000    -0.383629   
O102     O      0.451730000000     0.204240000000     0.498360000000    -0.383374   
O103     O      0.451720000000     0.250330000000     0.544010000000    -0.388457   
O104     O      0.451720000000     0.250340000000     0.952720000000    -0.388059   
O105     O      0.006300000000     0.250350000000     0.794010000000    -0.388405   
O106     O      0.006300000000     0.250340000000     0.702720000000    -0.388275   
O107     O      0.006290000000     0.296430000000     0.748360000000    -0.383222   
O108     O      0.006290000000     0.204250000000     0.748370000000    -0.383298   
O109     O      0.451730000000     0.204240000000     0.748360000000    -0.383376   
O110     O      0.451730000000     0.296430000000     0.748380000000    -0.383398   
O111     O      0.451720000000     0.250340000000     0.702720000000    -0.388442   
O112     O      0.451720000000     0.250330000000     0.794010000000    -0.388456   
O113     O      0.452080000000     0.456770000000     0.499050000000    -0.462629   
O114     O      0.452080000000     0.043900000000     0.997760000000    -0.460812   
O115     O      0.452020000000     0.999870000000     0.954370000000    -0.425587   
O116     O      0.452020000000     0.500800000000     0.542460000000    -0.444261   
O117     O      0.005990000000     0.999880000000     0.542460000000    -0.425939   
O118     O      0.005990000000     0.000800000000     0.954370000000    -0.439743   
O119     O      0.005940000000     0.043900000000     0.999050000000    -0.460347   
O120     O      0.005940000000     0.456780000000     0.497760000000    -0.462597   
O121     O      0.452080000000     0.456770000000     0.749050000000    -0.462633   
O122     O      0.452080000000     0.043900000000     0.747760000000    -0.460337   
O123     O      0.452020000000     0.999870000000     0.704370000000    -0.425995   
O124     O      0.452020000000     0.500800000000     0.792460000000    -0.444272   
O125     O      0.005990000000     0.999880000000     0.792460000000    -0.42595    
O126     O      0.005990000000     0.000800000000     0.704370000000    -0.440174   
O127     O      0.005940000000     0.043900000000     0.749050000000    -0.460172   
O128     O      0.005940000000     0.456780000000     0.747760000000    -0.462594   
O129     O      0.229610000000     0.474940000000     0.544070000000    -0.388445   
O130     O      0.228400000000     0.474940000000     0.952790000000    -0.388209   
O131     O      0.278510000000     0.474930000000     0.997690000000    -0.381211   
O132     O      0.179500000000     0.474940000000     0.499180000000    -0.380908   
O133     O      0.179500000000     0.025750000000     0.497690000000    -0.37854    
O134     O      0.278520000000     0.025740000000     0.999180000000    -0.37952    
O135     O      0.229620000000     0.025740000000     0.952790000000    -0.385998   
O136     O      0.228400000000     0.025740000000     0.544070000000    -0.386235   
O137     O      0.229610000000     0.474940000000     0.794070000000    -0.388454   
O138     O      0.228400000000     0.474940000000     0.702790000000    -0.388556   
O139     O      0.278510000000     0.474930000000     0.747690000000    -0.380698   
O140     O      0.179500000000     0.474940000000     0.749180000000    -0.380907   
O141     O      0.179500000000     0.025750000000     0.747690000000    -0.378596   
O142     O      0.278520000000     0.025740000000     0.749180000000    -0.378624   
O143     O      0.229620000000     0.025740000000     0.702790000000    -0.386344   
O144     O      0.228400000000     0.025740000000     0.794070000000    -0.386247   
O145     O      0.506300000000     0.250330000000     0.952720000000    -0.388065   
O146     O      0.506300000000     0.250350000000     0.544010000000    -0.388473   
O147     O      0.506290000000     0.204250000000     0.498380000000    -0.383455   
O148     O      0.506290000000     0.296430000000     0.998350000000    -0.38364    
O149     O      0.951730000000     0.296430000000     0.998370000000    -0.38358    
O150     O      0.951730000000     0.204240000000     0.498360000000    -0.383331   
O151     O      0.951720000000     0.250330000000     0.544010000000    -0.388413   
O152     O      0.951720000000     0.250340000000     0.952720000000    -0.387995   
O153     O      0.506300000000     0.250350000000     0.794010000000    -0.388479   
O154     O      0.506300000000     0.250340000000     0.702720000000    -0.38844    
O155     O      0.506290000000     0.296430000000     0.748360000000    -0.383389   
O156     O      0.506290000000     0.204250000000     0.748370000000    -0.383463   
O157     O      0.951730000000     0.204240000000     0.748360000000    -0.383333   
O158     O      0.951730000000     0.296430000000     0.748380000000    -0.383353   
O159     O      0.951720000000     0.250340000000     0.702720000000    -0.388398   
O160     O      0.951720000000     0.250330000000     0.794010000000    -0.388504   
O161     O      0.952080000000     0.456770000000     0.499050000000    -0.462577   
O162     O      0.952080000000     0.043900000000     0.997760000000    -0.460762   
O163     O      0.952020000000     0.999870000000     0.954370000000    -0.425541   
O164     O      0.952020000000     0.500800000000     0.542460000000    -0.444213   
O165     O      0.505990000000     0.999880000000     0.542460000000    -0.426115   
O166     O      0.505990000000     0.000800000000     0.954370000000    -0.439919   
O167     O      0.505940000000     0.043900000000     0.999050000000    -0.460522   
O168     O      0.505940000000     0.456780000000     0.497760000000    -0.462796   
O169     O      0.952080000000     0.456770000000     0.749050000000    -0.462576   
O170     O      0.952080000000     0.043900000000     0.747760000000    -0.460295   
O171     O      0.952020000000     0.999870000000     0.704370000000    -0.425957   
O172     O      0.952020000000     0.500800000000     0.792460000000    -0.444218   
O173     O      0.505990000000     0.999880000000     0.792460000000    -0.426126   
O174     O      0.505990000000     0.000800000000     0.704370000000    -0.440342   
O175     O      0.505940000000     0.043900000000     0.749050000000    -0.460341   
O176     O      0.505940000000     0.456780000000     0.747760000000    -0.462788   
O177     O      0.729610000000     0.474940000000     0.544070000000    -0.388445   
O178     O      0.728400000000     0.474940000000     0.952790000000    -0.388207   
O179     O      0.778510000000     0.474930000000     0.997690000000    -0.3813     
O180     O      0.679500000000     0.474940000000     0.499180000000    -0.380819   
O181     O      0.679500000000     0.025750000000     0.497690000000    -0.37854    
O182     O      0.778520000000     0.025740000000     0.999180000000    -0.379535   
O183     O      0.729620000000     0.025740000000     0.952790000000    -0.385997   
O184     O      0.728400000000     0.025740000000     0.544070000000    -0.386234   
O185     O      0.729610000000     0.474940000000     0.794070000000    -0.388454   
O186     O      0.728400000000     0.474940000000     0.702790000000    -0.388553   
O187     O      0.778510000000     0.474930000000     0.747690000000    -0.380783   
O188     O      0.679500000000     0.474940000000     0.749180000000    -0.380818   
O189     O      0.679500000000     0.025750000000     0.747690000000    -0.378596   
O190     O      0.778520000000     0.025740000000     0.749180000000    -0.378623   
O191     O      0.729620000000     0.025740000000     0.702790000000    -0.386343   
O192     O      0.728400000000     0.025740000000     0.794070000000    -0.386246   
O193     O      0.006300000000     0.750330000000     0.452720000000    -0.388254   
O194     O      0.006300000000     0.750350000000     0.044010000000    -0.385869   
O195     O      0.006290000000     0.704250000000     0.998380000000    -0.383552   
O196     O      0.006290000000     0.796430000000     0.498350000000    -0.383126   
O197     O      0.451730000000     0.796430000000     0.498370000000    -0.383311   
O198     O      0.451730000000     0.704240000000     0.998360000000    -0.383651   
O199     O      0.451720000000     0.750330000000     0.044010000000    -0.386014   
O200     O      0.451720000000     0.750340000000     0.452720000000    -0.388416   
O201     O      0.006300000000     0.750350000000     0.294010000000    -0.388286   
O202     O      0.006300000000     0.750340000000     0.202720000000    -0.388178   
O203     O      0.006290000000     0.796430000000     0.248360000000    -0.383097   
O204     O      0.006290000000     0.704250000000     0.248370000000    -0.383297   
O205     O      0.451730000000     0.704240000000     0.248360000000    -0.38338    
O206     O      0.451730000000     0.796430000000     0.248380000000    -0.383329   
O207     O      0.451720000000     0.750340000000     0.202720000000    -0.388348   
O208     O      0.451720000000     0.750330000000     0.294010000000    -0.388429   
O209     O      0.452080000000     0.956770000000     0.999050000000    -0.454532   
O210     O      0.452080000000     0.543900000000     0.497760000000    -0.462762   
O211     O      0.452020000000     0.499870000000     0.454370000000    -0.444265   
O212     O      0.452020000000     0.000800000000     0.042460000000    -0.437842   
O213     O      0.005990000000     0.499880000000     0.042460000000    -0.441806   
O214     O      0.005990000000     0.500800000000     0.454370000000    -0.444206   
O215     O      0.005940000000     0.543900000000     0.499050000000    -0.462592   
O216     O      0.005940000000     0.956780000000     0.997760000000    -0.454786   
O217     O      0.452080000000     0.956770000000     0.249050000000    -0.454349   
O218     O      0.452080000000     0.543900000000     0.247760000000    -0.462737   
O219     O      0.452020000000     0.499870000000     0.204370000000    -0.444206   
O220     O      0.452020000000     0.000800000000     0.292460000000    -0.440259   
O221     O      0.005990000000     0.499880000000     0.292460000000    -0.444235   
O222     O      0.005990000000     0.500800000000     0.204370000000    -0.444143   
O223     O      0.005940000000     0.543900000000     0.249050000000    -0.462583   
O224     O      0.005940000000     0.956780000000     0.247760000000    -0.454295   
O225     O      0.229610000000     0.974940000000     0.044070000000    -0.377614   
O226     O      0.228400000000     0.974940000000     0.452790000000    -0.380116   
O227     O      0.278510000000     0.974930000000     0.497690000000    -0.372226   
O228     O      0.179500000000     0.974930000000     0.999180000000    -0.373188   
O229     O      0.179500000000     0.525740000000     0.997690000000    -0.381425   
O230     O      0.278520000000     0.525740000000     0.499180000000    -0.380807   
O231     O      0.229620000000     0.525740000000     0.452790000000    -0.388569   
O232     O      0.228400000000     0.525740000000     0.044070000000    -0.386031   
O233     O      0.229610000000     0.974940000000     0.294070000000    -0.380013   
O234     O      0.228400000000     0.974940000000     0.202790000000    -0.380062   
O235     O      0.278510000000     0.974930000000     0.247690000000    -0.372201   
O236     O      0.179500000000     0.974940000000     0.249180000000    -0.372401   
O237     O      0.179500000000     0.525740000000     0.247690000000    -0.380833   
O238     O      0.278520000000     0.525740000000     0.249180000000    -0.380768   
O239     O      0.229620000000     0.525740000000     0.202790000000    -0.388502   
O240     O      0.228400000000     0.525740000000     0.294070000000    -0.388456   
O241     O      0.506300000000     0.750330000000     0.452720000000    -0.38842    
O242     O      0.506300000000     0.750350000000     0.044010000000    -0.386031   
O243     O      0.506290000000     0.704250000000     0.998380000000    -0.383718   
O244     O      0.506290000000     0.796430000000     0.498350000000    -0.383308   
O245     O      0.951730000000     0.796430000000     0.498370000000    -0.383173   
O246     O      0.951730000000     0.704240000000     0.998360000000    -0.383608   
O247     O      0.951720000000     0.750330000000     0.044010000000    -0.38597    
O248     O      0.951720000000     0.750340000000     0.452720000000    -0.388371   
O249     O      0.506300000000     0.750350000000     0.294010000000    -0.388455   
O250     O      0.506300000000     0.750340000000     0.202720000000    -0.388347   
O251     O      0.506280000000     0.796430000000     0.248360000000    -0.383403   
O252     O      0.506290000000     0.704250000000     0.248370000000    -0.383468   
O253     O      0.951730000000     0.704240000000     0.248360000000    -0.383333   
O254     O      0.951730000000     0.796430000000     0.248380000000    -0.383228   
O255     O      0.951720000000     0.750340000000     0.202720000000    -0.388301   
O256     O      0.951720000000     0.750330000000     0.294010000000    -0.388383   
O257     O      0.952080000000     0.956770000000     0.999050000000    -0.454481   
O258     O      0.952080000000     0.543900000000     0.497760000000    -0.462711   
O259     O      0.952020000000     0.499870000000     0.454370000000    -0.444217   
O260     O      0.952020000000     0.000800000000     0.042460000000    -0.437794   
O261     O      0.505990000000     0.499880000000     0.042460000000    -0.441982   
O262     O      0.505990000000     0.500800000000     0.454370000000    -0.444402   
O263     O      0.505940000000     0.543900000000     0.499050000000    -0.46279    
O264     O      0.505940000000     0.956780000000     0.997760000000    -0.454963   
O265     O      0.952080000000     0.956770000000     0.249050000000    -0.454301   
O266     O      0.952080000000     0.543900000000     0.247760000000    -0.462693   
O267     O      0.952020000000     0.499870000000     0.204370000000    -0.444163   
O268     O      0.952020000000     0.000800000000     0.292460000000    -0.440212   
O269     O      0.505990000000     0.499880000000     0.292460000000    -0.444428   
O270     O      0.505990000000     0.500800000000     0.204370000000    -0.444336   
O271     O      0.505940000000     0.543900000000     0.249050000000    -0.462774   
O272     O      0.505940000000     0.956780000000     0.247760000000    -0.454469   
O273     O      0.729610000000     0.974940000000     0.044070000000    -0.377614   
O274     O      0.728400000000     0.974940000000     0.452790000000    -0.380115   
O275     O      0.778510000000     0.974930000000     0.497690000000    -0.372225   
O276     O      0.679500000000     0.974930000000     0.999180000000    -0.373101   
O277     O      0.679500000000     0.525740000000     0.997690000000    -0.381412   
O278     O      0.778520000000     0.525740000000     0.499180000000    -0.380819   
O279     O      0.729620000000     0.525740000000     0.452790000000    -0.388568   
O280     O      0.728400000000     0.525740000000     0.044070000000    -0.38603    
O281     O      0.729610000000     0.974940000000     0.294070000000    -0.380012   
O282     O      0.728400000000     0.974940000000     0.202790000000    -0.380061   
O283     O      0.778510000000     0.974930000000     0.247690000000    -0.372201   
O284     O      0.679500000000     0.974940000000     0.249180000000    -0.372401   
O285     O      0.679500000000     0.525740000000     0.247690000000    -0.380818   
O286     O      0.778520000000     0.525740000000     0.249180000000    -0.380781   
O287     O      0.729620000000     0.525740000000     0.202790000000    -0.388502   
O288     O      0.728400000000     0.525740000000     0.294070000000    -0.388455   
O289     O      0.006300000000     0.750330000000     0.952720000000    -0.387855   
O290     O      0.006300000000     0.750350000000     0.544010000000    -0.388283   
O291     O      0.006290000000     0.704250000000     0.498380000000    -0.383339   
O292     O      0.006290000000     0.796430000000     0.998350000000    -0.383383   
O293     O      0.451730000000     0.796430000000     0.998370000000    -0.383538   
O294     O      0.451730000000     0.704240000000     0.498360000000    -0.38341    
O295     O      0.451720000000     0.750330000000     0.544010000000    -0.388432   
O296     O      0.451720000000     0.750340000000     0.952720000000    -0.388035   
O297     O      0.006300000000     0.750350000000     0.794010000000    -0.388381   
O298     O      0.006300000000     0.750340000000     0.702720000000    -0.38825    
O299     O      0.006290000000     0.796430000000     0.748360000000    -0.383127   
O300     O      0.006290000000     0.704250000000     0.748370000000    -0.383339   
O301     O      0.451730000000     0.704240000000     0.748360000000    -0.383424   
O302     O      0.451730000000     0.796430000000     0.748380000000    -0.383299   
O303     O      0.451720000000     0.750350000000     0.702720000000    -0.388418   
O304     O      0.451720000000     0.750330000000     0.794010000000    -0.388431   
O305     O      0.452080000000     0.956770000000     0.499050000000    -0.454344   
O306     O      0.452080000000     0.543900000000     0.997760000000    -0.463224   
O307     O      0.452020000000     0.499870000000     0.954370000000    -0.443818   
O308     O      0.452020000000     0.000800000000     0.542460000000    -0.440231   
O309     O      0.005990000000     0.499880000000     0.542460000000    -0.44421    
O310     O      0.005990000000     0.500800000000     0.954370000000    -0.443758   
O311     O      0.005940000000     0.543900000000     0.999050000000    -0.46276    
O312     O      0.005940000000     0.956780000000     0.497760000000    -0.454312   
O313     O      0.452070000000     0.956770000000     0.749050000000    -0.454185   
O314     O      0.452080000000     0.543900000000     0.747760000000    -0.462738   
O315     O      0.452020000000     0.499870000000     0.704370000000    -0.444258   
O316     O      0.452020000000     0.000800000000     0.792460000000    -0.44024    
O317     O      0.005990000000     0.499880000000     0.792460000000    -0.444213   
O318     O      0.005990000000     0.500800000000     0.704370000000    -0.444198   
O319     O      0.005940000000     0.543900000000     0.749050000000    -0.462565   
O320     O      0.005940000000     0.956780000000     0.747760000000    -0.454312   
O321     O      0.229610000000     0.974940000000     0.544070000000    -0.38       
O322     O      0.228400000000     0.974940000000     0.952790000000    -0.37977    
O323     O      0.278510000000     0.974930000000     0.997690000000    -0.372737   
O324     O      0.179500000000     0.974930000000     0.499180000000    -0.372288   
O325     O      0.179500000000     0.525750000000     0.497690000000    -0.380772   
O326     O      0.278520000000     0.525740000000     0.999180000000    -0.381705   
O327     O      0.229620000000     0.525740000000     0.952790000000    -0.388216   
O328     O      0.228400000000     0.525740000000     0.544070000000    -0.38845    
O329     O      0.229610000000     0.974940000000     0.794070000000    -0.380016   
O330     O      0.228400000000     0.974940000000     0.702790000000    -0.380111   
O331     O      0.278510000000     0.974930000000     0.747690000000    -0.372224   
O332     O      0.179500000000     0.974940000000     0.749180000000    -0.372428   
O333     O      0.179500000000     0.525750000000     0.747690000000    -0.380771   
O334     O      0.278520000000     0.525740000000     0.749180000000    -0.3808     
O335     O      0.229620000000     0.525740000000     0.702790000000    -0.388561   
O336     O      0.228400000000     0.525740000000     0.794070000000    -0.388459   
O337     O      0.506300000000     0.750330000000     0.952720000000    -0.38804    
O338     O      0.506300000000     0.750350000000     0.544010000000    -0.388449   
O339     O      0.506290000000     0.704250000000     0.498380000000    -0.383491   
O340     O      0.506290000000     0.796430000000     0.998350000000    -0.383549   
O341     O      0.951730000000     0.796430000000     0.998370000000    -0.383494   
O342     O      0.951730000000     0.704240000000     0.498360000000    -0.38346    
O343     O      0.951720000000     0.750330000000     0.544010000000    -0.388388   
O344     O      0.951720000000     0.750340000000     0.952720000000    -0.387971   
O345     O      0.506300000000     0.750350000000     0.794010000000    -0.388455   
O346     O      0.506300000000     0.750340000000     0.702720000000    -0.388415   
O347     O      0.506290000000     0.796430000000     0.748360000000    -0.383297   
O348     O      0.506290000000     0.704250000000     0.748370000000    -0.383504   
O349     O      0.951730000000     0.704240000000     0.748360000000    -0.383382   
O350     O      0.951730000000     0.796430000000     0.748380000000    -0.38325    
O351     O      0.951720000000     0.750350000000     0.702720000000    -0.388374   
O352     O      0.951720000000     0.750330000000     0.794010000000    -0.388478   
O353     O      0.952080000000     0.956770000000     0.499050000000    -0.454296   
O354     O      0.952080000000     0.543900000000     0.997760000000    -0.463173   
O355     O      0.952020000000     0.499870000000     0.954370000000    -0.44377    
O356     O      0.952020000000     0.000800000000     0.542460000000    -0.440184   
O357     O      0.505990000000     0.499880000000     0.542460000000    -0.444406   
O358     O      0.505990000000     0.500800000000     0.954370000000    -0.443935   
O359     O      0.505940000000     0.543900000000     0.999050000000    -0.462937   
O360     O      0.505940000000     0.956780000000     0.497760000000    -0.454487   
O361     O      0.952080000000     0.956770000000     0.749050000000    -0.454302   
O362     O      0.952080000000     0.543900000000     0.747760000000    -0.462692   
O363     O      0.952020000000     0.499870000000     0.704370000000    -0.444217   
O364     O      0.952020000000     0.000800000000     0.792460000000    -0.440193   
O365     O      0.505990000000     0.499880000000     0.792460000000    -0.444414   
O366     O      0.505990000000     0.500800000000     0.704370000000    -0.444389   
O367     O      0.505940000000     0.543900000000     0.749050000000    -0.462762   
O368     O      0.505940000000     0.956780000000     0.747760000000    -0.45441    
O369     O      0.729610000000     0.974940000000     0.544070000000    -0.379999   
O370     O      0.728400000000     0.974940000000     0.952790000000    -0.379768   
O371     O      0.778510000000     0.974930000000     0.997690000000    -0.372826   
O372     O      0.679500000000     0.974930000000     0.499180000000    -0.372288   
O373     O      0.679500000000     0.525750000000     0.497690000000    -0.380757   
O374     O      0.778520000000     0.525740000000     0.999180000000    -0.38172    
O375     O      0.729620000000     0.525740000000     0.952790000000    -0.388215   
O376     O      0.728400000000     0.525740000000     0.544070000000    -0.388449   
O377     O      0.729610000000     0.974940000000     0.794070000000    -0.380015   
O378     O      0.728400000000     0.974940000000     0.702790000000    -0.38011    
O379     O      0.778510000000     0.974930000000     0.747690000000    -0.372223   
O380     O      0.679500000000     0.974940000000     0.749180000000    -0.372428   
O381     O      0.679500000000     0.525750000000     0.747690000000    -0.380755   
O382     O      0.778520000000     0.525740000000     0.749180000000    -0.380813   
O383     O      0.729620000000     0.525740000000     0.702790000000    -0.38856    
O384     O      0.728400000000     0.525740000000     0.794070000000    -0.388458   


