data_structure

_audit_creation_method RASPA-1.0
_audit_creation_date 2023-5-22
_audit_author_name 'Poobodin Mano'

_cell_length_a    38.0474
_cell_length_b    38.0878
_cell_length_c    38.1084
_cell_angle_alpha 89.9997
_cell_angle_beta  89.9997
_cell_angle_gamma 90.0009
_cell_volume      55224.5

_symmetry_cell_setting          triclinic
_symmetry_space_group_name_Hall 'P 1'
_symmetry_space_group_name_H-M  'P 1'
_symmetry_Int_Tables_number     1

_symmetry_equiv_pos_as_xyz 'x,y,z'

loop_
_atom_site_label
_atom_site_type_symbol
_atom_site_fract_x
_atom_site_fract_y
_atom_site_fract_z
_atom_site_charge
C1       C      0.883170000000     0.439820000000     0.812200000000     0.349219   
C2       C      0.813010000000     0.537760000000     0.882430000000     0.349165   
C3       C      0.883160000000     0.537770000000     0.812200000000     0.349061   
C4       C      0.813020000000     0.439810000000     0.882430000000     0.349341   
C5       C      0.732720000000     0.628430000000     0.071030000000     0.349316   
C6       C      0.662530000000     0.698650000000     0.973120000000     0.349121   
C7       C      0.732720000000     0.628420000000     0.973130000000     0.348999   
C8       C      0.662530000000     0.698660000000     0.071020000000     0.349214   
C9       C      0.571870000000     0.778970000000     0.882450000000     0.34908    
C10      C      0.473830000000     0.849120000000     0.812260000000     0.349279   
C11      C      0.473820000000     0.778980000000     0.882440000000     0.34925    
C12      C      0.571880000000     0.849110000000     0.812270000000     0.349293   
C13      C      0.662530000000     0.037720000000     0.731930000000     0.349025   
C14      C      0.732690000000     0.939790000000     0.661680000000     0.349315   
C15      C      0.662540000000     0.939760000000     0.731910000000     0.349096   
C16      C      0.732680000000     0.037740000000     0.661700000000     0.349101   
C17      C      0.973810000000     0.698570000000     0.661630000000     0.349172   
C18      C      0.071850000000     0.628420000000     0.731820000000     0.349051   
C19      C      0.071860000000     0.698560000000     0.661640000000     0.349241   
C20      C      0.973800000000     0.628430000000     0.731810000000     0.34932    
C21      C      0.812970000000     0.849150000000     0.473060000000     0.349411   
C22      C      0.883170000000     0.778920000000     0.570960000000     0.349204   
C23      C      0.812980000000     0.849140000000     0.570970000000     0.349182   
C24      C      0.883160000000     0.778920000000     0.473060000000     0.349283   
C25      C      0.571890000000     0.128390000000     0.812280000000     0.349308   
C26      C      0.473830000000     0.198550000000     0.882430000000     0.349289   
C27      C      0.473840000000     0.128390000000     0.812270000000     0.349314   
C28      C      0.571880000000     0.198550000000     0.882440000000     0.349315   
C29      C      0.732710000000     0.349140000000     0.071010000000     0.349027   
C30      C      0.662540000000     0.278900000000     0.973100000000     0.349251   
C31      C      0.732720000000     0.349140000000     0.973110000000     0.349199   
C32      C      0.662520000000     0.278910000000     0.071000000000     0.349017   
C33      C      0.813000000000     0.537750000000     0.161700000000     0.349145   
C34      C      0.883160000000     0.439790000000     0.231930000000     0.349174   
C35      C      0.813000000000     0.439800000000     0.161700000000     0.349224   
C36      C      0.883160000000     0.537750000000     0.231920000000     0.349326   
C37      C      0.973840000000     0.698570000000     0.382420000000     0.349237   
C38      C      0.071880000000     0.628390000000     0.312260000000     0.34913    
C39      C      0.071890000000     0.698550000000     0.382420000000     0.349225   
C40      C      0.973830000000     0.628410000000     0.312270000000     0.349134   
C41      C      0.162550000000     0.778880000000     0.570990000000     0.349406   
C42      C      0.232730000000     0.849110000000     0.473090000000     0.349367   
C43      C      0.162550000000     0.778890000000     0.473090000000     0.34926    
C44      C      0.232730000000     0.849110000000     0.571000000000     0.349373   
C45      C      0.383190000000     0.939780000000     0.731900000000     0.349115   
C46      C      0.313020000000     0.037740000000     0.661680000000     0.349259   
C47      C      0.383190000000     0.037740000000     0.731900000000     0.34909    
C48      C      0.313030000000     0.939780000000     0.661670000000     0.349143   
C49      C      0.662490000000     0.037790000000     0.312200000000     0.349286   
C50      C      0.732660000000     0.939830000000     0.382410000000     0.349078   
C51      C      0.662500000000     0.939830000000     0.312190000000     0.349157   
C52      C      0.732650000000     0.037780000000     0.382420000000     0.348954   
C53      C      0.571860000000     0.779010000000     0.161660000000     0.34933    
C54      C      0.473800000000     0.849160000000     0.231820000000     0.349263   
C55      C      0.473810000000     0.779000000000     0.161660000000     0.349313   
C56      C      0.571850000000     0.849160000000     0.231820000000     0.349273   
C57      C      0.162510000000     0.537770000000     0.812180000000     0.349427   
C58      C      0.232670000000     0.439820000000     0.882390000000     0.349345   
C59      C      0.162510000000     0.439820000000     0.812170000000     0.34936    
C60      C      0.232670000000     0.537770000000     0.882400000000     0.349207   
C61      C      0.383150000000     0.698650000000     0.071010000000     0.349103   
C62      C      0.312960000000     0.628420000000     0.973100000000     0.349122   
C63      C      0.383150000000     0.698650000000     0.973100000000     0.349009   
C64      C      0.312960000000     0.628420000000     0.071000000000     0.34918    
C65      C      0.162520000000     0.537730000000     0.231900000000     0.349168   
C66      C      0.232660000000     0.439780000000     0.161660000000     0.349387   
C67      C      0.162510000000     0.439770000000     0.231900000000     0.349135   
C68      C      0.232660000000     0.537730000000     0.161670000000     0.34936    
C69      C      0.383140000000     0.278900000000     0.973060000000     0.349351   
C70      C      0.312950000000     0.349120000000     0.070960000000     0.349035   
C71      C      0.383130000000     0.278900000000     0.070960000000     0.349238   
C72      C      0.312960000000     0.349130000000     0.973050000000     0.349144   
C73      C      0.473790000000     0.198580000000     0.161640000000     0.349234   
C74      C      0.571830000000     0.128440000000     0.231830000000     0.349253   
C75      C      0.571840000000     0.198580000000     0.161650000000     0.349118   
C76      C      0.473780000000     0.128440000000     0.231820000000     0.34918    
C77      C      0.973810000000     0.349150000000     0.731840000000     0.349168   
C78      C      0.071850000000     0.278990000000     0.661670000000     0.349269   
C79      C      0.071860000000     0.349150000000     0.731830000000     0.349222   
C80      C      0.973800000000     0.278990000000     0.661670000000     0.349138   
C81      C      0.812940000000     0.128440000000     0.473110000000     0.349306   
C82      C      0.883130000000     0.198660000000     0.571020000000     0.349342   
C83      C      0.812950000000     0.128430000000     0.571020000000     0.349174   
C84      C      0.883130000000     0.198670000000     0.473120000000     0.349272   
C85      C      0.232710000000     0.128410000000     0.571020000000     0.348992   
C86      C      0.162520000000     0.198640000000     0.473120000000     0.349202   
C87      C      0.232700000000     0.128420000000     0.473110000000     0.349339   
C88      C      0.162530000000     0.198640000000     0.571030000000     0.349134   
C89      C      0.312990000000     0.037760000000     0.382420000000     0.349252   
C90      C      0.383150000000     0.939820000000     0.312180000000     0.349486   
C91      C      0.313010000000     0.939800000000     0.382410000000     0.349186   
C92      C      0.383140000000     0.037770000000     0.312190000000     0.349184   
C93      C      0.071860000000     0.278990000000     0.382460000000     0.349246   
C94      C      0.973820000000     0.349140000000     0.312290000000     0.349249   
C95      C      0.973810000000     0.279000000000     0.382460000000     0.349254   
C96      C      0.071860000000     0.349130000000     0.312280000000     0.34902    
C97      C      0.097080000000     0.221650000000     0.401990000000    -0.00421401 
C98      C      0.097340000000     0.258510000000     0.403300000000    -0.0817983  
C99      C      0.120710000000     0.275500000000     0.426230000000    -0.00393084 
C100     C      0.143020000000     0.255980000000     0.447880000000    -0.00420955 
C101     C      0.141680000000     0.219130000000     0.447650000000    -0.0817096  
C102     C      0.118730000000     0.202130000000     0.424300000000    -0.0039874  
C103     C      0.290070000000     0.108880000000     0.447850000000    -0.00424864 
C104     C      0.253170000000     0.107570000000     0.447640000000    -0.081763   
C105     C      0.236120000000     0.084650000000     0.424310000000    -0.00391957 
C106     C      0.255620000000     0.063000000000     0.401990000000    -0.0042203  
C107     C      0.292520000000     0.063230000000     0.403270000000    -0.0817521  
C108     C      0.309570000000     0.086570000000     0.426180000000    -0.00391575 
C109     C      0.926900000000     0.202150000000     0.424290000000    -0.00388792 
C110     C      0.903960000000     0.219150000000     0.447650000000    -0.0818052  
C111     C      0.902640000000     0.256010000000     0.447890000000    -0.00416151 
C112     C      0.924960000000     0.275530000000     0.426240000000    -0.00401724 
C113     C      0.948320000000     0.258520000000     0.403300000000    -0.0816631  
C114     C      0.948560000000     0.221670000000     0.401980000000    -0.00421857 
C115     C      0.948570000000     0.221660000000     0.642150000000    -0.00419726 
C116     C      0.948310000000     0.258520000000     0.640840000000    -0.0817438  
C117     C      0.924940000000     0.275520000000     0.617920000000    -0.00394307 
C118     C      0.902630000000     0.256000000000     0.596260000000    -0.00420955 
C119     C      0.903960000000     0.219140000000     0.596500000000    -0.0817677  
C120     C      0.926920000000     0.202140000000     0.619840000000    -0.00391459 
C121     C      0.118740000000     0.202130000000     0.619840000000    -0.00398411 
C122     C      0.141690000000     0.219130000000     0.596500000000    -0.0816636  
C123     C      0.143030000000     0.255990000000     0.596250000000    -0.00429248 
C124     C      0.120710000000     0.275510000000     0.617900000000    -0.00394783 
C125     C      0.097340000000     0.258510000000     0.640830000000    -0.0817484  
C126     C      0.097090000000     0.221650000000     0.642150000000    -0.0042195  
C127     C      0.402610000000     0.063000000000     0.254860000000    -0.00423545 
C128     C      0.403960000000     0.063250000000     0.291700000000    -0.0816977  
C129     C      0.426910000000     0.086620000000     0.308670000000    -0.00395919 
C130     C      0.448560000000     0.108940000000     0.289140000000    -0.00417235 
C131     C      0.448300000000     0.107610000000     0.252300000000    -0.0817828  
C132     C      0.424920000000     0.084660000000     0.235330000000    -0.00391197 
C133     C      0.448560000000     0.255910000000     0.142110000000    -0.00425029 
C134     C      0.448300000000     0.219050000000     0.140800000000    -0.0817733  
C135     C      0.424940000000     0.202050000000     0.117870000000    -0.00392048 
C136     C      0.402630000000     0.221560000000     0.096210000000    -0.00425637 
C137     C      0.403960000000     0.258420000000     0.096440000000    -0.081751   
C138     C      0.426910000000     0.275420000000     0.119790000000    -0.00393931 
C139     C      0.290030000000     0.414530000000     0.142090000000    -0.00417931 
C140     C      0.253130000000     0.414310000000     0.140810000000    -0.0818526  
C141     C      0.236080000000     0.390970000000     0.117890000000    -0.00389102 
C142     C      0.255580000000     0.368660000000     0.096220000000    -0.00433974 
C143     C      0.292480000000     0.369970000000     0.096430000000    -0.0816517  
C144     C      0.309530000000     0.392880000000     0.119770000000    -0.00401192 
C145     C      0.143040000000     0.414550000000     0.289230000000    -0.00419253 
C146     C      0.141690000000     0.414300000000     0.252390000000    -0.0818083  
C147     C      0.118720000000     0.390930000000     0.235420000000    -0.00393914 
C148     C      0.097070000000     0.368630000000     0.254950000000    -0.00429313 
C149     C      0.097350000000     0.369960000000     0.291790000000    -0.0816505  
C150     C      0.120730000000     0.392900000000     0.308760000000    -0.00399997 
C151     C      0.255590000000     0.608860000000     0.096250000000    -0.00427979 
C152     C      0.292490000000     0.607570000000     0.096470000000    -0.0817314  
C153     C      0.309540000000     0.584650000000     0.119800000000    -0.00397332 
C154     C      0.290030000000     0.562990000000     0.142110000000    -0.00420554 
C155     C      0.253130000000     0.563210000000     0.140820000000    -0.0817967  
C156     C      0.236080000000     0.586540000000     0.117910000000    -0.00391883 
C157     C      0.118730000000     0.390970000000     0.808670000000    -0.00391863 
C158     C      0.141690000000     0.414340000000     0.791690000000    -0.0818556  
C159     C      0.143030000000     0.414590000000     0.754850000000    -0.00418807 
C160     C      0.120720000000     0.392930000000     0.735330000000    -0.00397206 
C161     C      0.097350000000     0.369980000000     0.752310000000    -0.0817557  
C162     C      0.097080000000     0.368660000000     0.789150000000    -0.00425461 
C163     C      0.236090000000     0.586580000000     0.926160000000    -0.0039206  
C164     C      0.253140000000     0.563240000000     0.903250000000    -0.0817561  
C165     C      0.290040000000     0.563010000000     0.901970000000    -0.00420344 
C166     C      0.309550000000     0.584660000000     0.924290000000    -0.00397987 
C167     C      0.292500000000     0.607580000000     0.947620000000    -0.0816956  
C168     C      0.255600000000     0.608890000000     0.947830000000    -0.00423209 
C169     C      0.236080000000     0.390990000000     0.926140000000    -0.00398943 
C170     C      0.253140000000     0.414330000000     0.903230000000    -0.0817026  
C171     C      0.290040000000     0.414550000000     0.901940000000    -0.00424904 
C172     C      0.309540000000     0.392890000000     0.924250000000    -0.00392069 
C173     C      0.292490000000     0.369970000000     0.947580000000    -0.0817423  
C174     C      0.255590000000     0.368680000000     0.947800000000    -0.00419342 
C175     C      0.448590000000     0.721660000000     0.142130000000    -0.00422771 
C176     C      0.448330000000     0.758520000000     0.140820000000    -0.0818043  
C177     C      0.424950000000     0.775510000000     0.117890000000    -0.00392477 
C178     C      0.402640000000     0.755990000000     0.096240000000    -0.0042605  
C179     C      0.403980000000     0.719130000000     0.096480000000    -0.0817768  
C180     C      0.426930000000     0.702140000000     0.119830000000    -0.0039324  
C181     C      0.426930000000     0.890980000000     0.308660000000    -0.0039077  
C182     C      0.403980000000     0.914340000000     0.291690000000    -0.0818217  
C183     C      0.402630000000     0.914600000000     0.254850000000    -0.00425861 
C184     C      0.424940000000     0.892940000000     0.235330000000    -0.00392796 
C185     C      0.448320000000     0.869990000000     0.252300000000    -0.0818268  
C186     C      0.448580000000     0.868660000000     0.289140000000    -0.00422559 
C187     C      0.790020000000     0.063040000000     0.401980000000    -0.00429476 
C188     C      0.753120000000     0.063260000000     0.403270000000    -0.0815681  
C189     C      0.736070000000     0.086590000000     0.426190000000    -0.00400627 
C190     C      0.755570000000     0.108900000000     0.447850000000    -0.00418845 
C191     C      0.792470000000     0.107600000000     0.447630000000    -0.0817897  
C192     C      0.809520000000     0.084690000000     0.424300000000    -0.00386274 
C193     C      0.618720000000     0.890990000000     0.308670000000    -0.00394284 
C194     C      0.641670000000     0.914350000000     0.291700000000    -0.0817106  
C195     C      0.643020000000     0.914610000000     0.254860000000    -0.00427335 
C196     C      0.620710000000     0.892950000000     0.235330000000    -0.00397241 
C197     C      0.597330000000     0.870000000000     0.252310000000    -0.0817335  
C198     C      0.597070000000     0.868670000000     0.289150000000    -0.00424734 
C199     C      0.643010000000     0.063010000000     0.254870000000    -0.00421711 
C200     C      0.641660000000     0.063260000000     0.291710000000    -0.0817532  
C201     C      0.618690000000     0.086620000000     0.308680000000    -0.00391942 
C202     C      0.597040000000     0.108930000000     0.289160000000    -0.0042535  
C203     C      0.597320000000     0.107610000000     0.252320000000    -0.0817116  
C204     C      0.620700000000     0.084670000000     0.235350000000    -0.00390449 
C205     C      0.290090000000     0.108870000000     0.596260000000    -0.0042902  
C206     C      0.253190000000     0.107570000000     0.596490000000    -0.0816243  
C207     C      0.236140000000     0.084650000000     0.619820000000    -0.0039993  
C208     C      0.255650000000     0.062990000000     0.642130000000    -0.00416381 
C209     C      0.292550000000     0.063210000000     0.640830000000    -0.081782   
C210     C      0.309600000000     0.086550000000     0.617920000000    -0.00388825 
C211     C      0.236150000000     0.892870000000     0.619800000000    -0.00396156 
C212     C      0.253200000000     0.869960000000     0.596470000000    -0.0818015  
C213     C      0.290100000000     0.868660000000     0.596250000000    -0.00420271 
C214     C      0.309610000000     0.890970000000     0.617910000000    -0.00396484 
C215     C      0.292560000000     0.914310000000     0.640830000000    -0.0817949  
C216     C      0.255660000000     0.914530000000     0.642110000000    -0.00422775 
C217     C      0.236150000000     0.892870000000     0.424280000000    -0.00395794 
C218     C      0.253200000000     0.869960000000     0.447610000000    -0.0817574  
C219     C      0.290100000000     0.868670000000     0.447830000000    -0.0042467  
C220     C      0.309600000000     0.890990000000     0.426170000000    -0.00392254 
C221     C      0.292550000000     0.914320000000     0.403260000000    -0.0817768  
C222     C      0.255650000000     0.914530000000     0.401970000000    -0.00423257 
C223     C      0.120740000000     0.702030000000     0.426190000000    -0.00394865 
C224     C      0.097380000000     0.719030000000     0.403260000000    -0.0817385  
C225     C      0.097120000000     0.755890000000     0.401950000000    -0.00424506 
C226     C      0.118770000000     0.775410000000     0.424260000000    -0.00398679 
C227     C      0.141720000000     0.758410000000     0.447610000000    -0.0817442  
C228     C      0.143050000000     0.721550000000     0.447850000000    -0.00422856 
C229     C      0.120730000000     0.584600000000     0.308750000000    -0.00391959 
C230     C      0.097360000000     0.607560000000     0.291780000000    -0.0818105  
C231     C      0.097090000000     0.608890000000     0.254940000000    -0.00424417 
C232     C      0.118740000000     0.586580000000     0.235420000000    -0.00396636 
C233     C      0.141690000000     0.563200000000     0.252390000000    -0.0817593  
C234     C      0.143030000000     0.562950000000     0.289230000000    -0.00422085 
C235     C      0.902650000000     0.562980000000     0.289250000000    -0.0041911  
C236     C      0.903990000000     0.563230000000     0.252410000000    -0.0817504  
C237     C      0.926950000000     0.586590000000     0.235430000000    -0.00393831 
C238     C      0.948600000000     0.608900000000     0.254950000000    -0.00421445 
C239     C      0.948340000000     0.607580000000     0.291790000000    -0.0816662  
C240     C      0.924960000000     0.584630000000     0.308770000000    -0.00398722 
C241     C      0.902640000000     0.414570000000     0.289250000000    -0.00413334 
C242     C      0.903980000000     0.414320000000     0.252410000000    -0.0818598  
C243     C      0.926940000000     0.390950000000     0.235440000000    -0.00386792 
C244     C      0.948590000000     0.368640000000     0.254960000000    -0.0042696  
C245     C      0.948330000000     0.369970000000     0.291800000000    -0.0816344  
C246     C      0.924950000000     0.392920000000     0.308780000000    -0.0040216  
C247     C      0.790070000000     0.368670000000     0.096290000000    -0.00423682 
C248     C      0.753170000000     0.369980000000     0.096490000000    -0.0817176  
C249     C      0.736120000000     0.392900000000     0.119820000000    -0.00399238 
C250     C      0.755630000000     0.414550000000     0.142130000000    -0.00417694 
C251     C      0.792530000000     0.414320000000     0.140860000000    -0.0817795  
C252     C      0.809580000000     0.390980000000     0.117950000000    -0.00394236 
C253     C      0.643010000000     0.221570000000     0.096240000000    -0.00428444 
C254     C      0.641680000000     0.258430000000     0.096470000000    -0.0816691  
C255     C      0.618730000000     0.275430000000     0.119820000000    -0.00400095 
C256     C      0.597080000000     0.255910000000     0.142130000000    -0.0041854  
C257     C      0.597330000000     0.219050000000     0.140820000000    -0.0817906  
C258     C      0.620700000000     0.202050000000     0.117890000000    -0.00391722 
C259     C      0.424980000000     0.084610000000     0.808760000000    -0.00397194 
C260     C      0.448360000000     0.107560000000     0.791780000000    -0.0817864  
C261     C      0.448630000000     0.108880000000     0.754950000000    -0.00412307 
C262     C      0.426980000000     0.086570000000     0.735420000000    -0.00398496 
C263     C      0.404010000000     0.063210000000     0.752390000000    -0.081729   
C264     C      0.402670000000     0.062960000000     0.789230000000    -0.00418222 
C265     C      0.597110000000     0.255890000000     0.901970000000    -0.00419449 
C266     C      0.597360000000     0.219030000000     0.903280000000    -0.0817958  
C267     C      0.620730000000     0.202040000000     0.926220000000    -0.00388766 
C268     C      0.643040000000     0.221560000000     0.947870000000    -0.00423359 
C269     C      0.641700000000     0.258420000000     0.947630000000    -0.0817298  
C270     C      0.618760000000     0.275410000000     0.924280000000    -0.00391476 
C271     C      0.424970000000     0.202030000000     0.926190000000    -0.00390594 
C272     C      0.448340000000     0.219030000000     0.903260000000    -0.0817729  
C273     C      0.448590000000     0.255890000000     0.901940000000    -0.00418959 
C274     C      0.426940000000     0.275410000000     0.924250000000    -0.00398415 
C275     C      0.403980000000     0.258410000000     0.947590000000    -0.0816913  
C276     C      0.402650000000     0.221550000000     0.947830000000    -0.00421422 
C277     C      0.926950000000     0.775430000000     0.424240000000    -0.00389095 
C278     C      0.903990000000     0.758440000000     0.447590000000    -0.0817965  
C279     C      0.902660000000     0.721580000000     0.447830000000    -0.00421152 
C280     C      0.924980000000     0.702060000000     0.426180000000    -0.00392303 
C281     C      0.948350000000     0.719050000000     0.403250000000    -0.0817208  
C282     C      0.948610000000     0.755910000000     0.401940000000    -0.00423803 
C283     C      0.755600000000     0.868700000000     0.447810000000    -0.00415108 
C284     C      0.792500000000     0.870000000000     0.447600000000    -0.0819014  
C285     C      0.809540000000     0.892920000000     0.424270000000    -0.00386288 
C286     C      0.790030000000     0.914580000000     0.401960000000    -0.00429096 
C287     C      0.753130000000     0.914350000000     0.403250000000    -0.0817157  
C288     C      0.736090000000     0.891010000000     0.426160000000    -0.00399219 
C289     C      0.948590000000     0.755910000000     0.642100000000    -0.0042365  
C290     C      0.948330000000     0.719050000000     0.640790000000    -0.081728   
C291     C      0.924960000000     0.702060000000     0.617860000000    -0.00391181 
C292     C      0.902650000000     0.721570000000     0.596200000000    -0.00423705 
C293     C      0.903990000000     0.758430000000     0.596430000000    -0.0817577  
C294     C      0.926950000000     0.775430000000     0.619780000000    -0.00392957 
C295     C      0.120710000000     0.702030000000     0.617870000000    -0.00392018 
C296     C      0.097350000000     0.719030000000     0.640810000000    -0.0818518  
C297     C      0.097110000000     0.755890000000     0.642120000000    -0.00416881 
C298     C      0.118770000000     0.775410000000     0.619820000000    -0.00400972 
C299     C      0.141710000000     0.758400000000     0.596460000000    -0.0817917  
C300     C      0.143030000000     0.721550000000     0.596220000000    -0.00421771 
C301     C      0.143020000000     0.563000000000     0.754850000000    -0.0041899  
C302     C      0.141680000000     0.563250000000     0.791690000000    -0.081813   
C303     C      0.118720000000     0.586610000000     0.808660000000    -0.00388548 
C304     C      0.097070000000     0.608920000000     0.789140000000    -0.00426992 
C305     C      0.097330000000     0.607590000000     0.752300000000    -0.0817556  
C306     C      0.120710000000     0.584650000000     0.735330000000    -0.00396352 
C307     C      0.790060000000     0.914550000000     0.642100000000    -0.00421195 
C308     C      0.753160000000     0.914320000000     0.640820000000    -0.0817799  
C309     C      0.736110000000     0.890980000000     0.617910000000    -0.00394166 
C310     C      0.755620000000     0.868680000000     0.596240000000    -0.00424547 
C311     C      0.792510000000     0.869980000000     0.596450000000    -0.0817037  
C312     C      0.809570000000     0.892900000000     0.619780000000    -0.00402154 
C313     C      0.643050000000     0.062940000000     0.789260000000    -0.00431833 
C314     C      0.641710000000     0.063200000000     0.752420000000    -0.0816022  
C315     C      0.618760000000     0.086570000000     0.735440000000    -0.00403402 
C316     C      0.597110000000     0.108880000000     0.754970000000    -0.00411439 
C317     C      0.597370000000     0.107550000000     0.791810000000    -0.0818728  
C318     C      0.620740000000     0.084600000000     0.808780000000    -0.00381629 
C319     C      0.790040000000     0.063010000000     0.642140000000    -0.00422313 
C320     C      0.753140000000     0.063220000000     0.640850000000    -0.0816869  
C321     C      0.736080000000     0.086560000000     0.617940000000    -0.0039252  
C322     C      0.755580000000     0.108880000000     0.596280000000    -0.00429333 
C323     C      0.792490000000     0.107580000000     0.596500000000    -0.0816912  
C324     C      0.809540000000     0.084670000000     0.619820000000    -0.00391381 
C325     C      0.597110000000     0.868610000000     0.754950000000    -0.00421572 
C326     C      0.597370000000     0.869940000000     0.791790000000    -0.0817972  
C327     C      0.620750000000     0.892880000000     0.808760000000    -0.00390504 
C328     C      0.643070000000     0.914540000000     0.789240000000    -0.0042764  
C329     C      0.641720000000     0.914280000000     0.752400000000    -0.0817229  
C330     C      0.618760000000     0.890920000000     0.735430000000    -0.00396537 
C331     C      0.448630000000     0.868630000000     0.754940000000    -0.00416561 
C332     C      0.448350000000     0.869950000000     0.791770000000    -0.0818144  
C333     C      0.424970000000     0.892900000000     0.808740000000    -0.00390908 
C334     C      0.402660000000     0.914550000000     0.789220000000    -0.00423323 
C335     C      0.404010000000     0.914310000000     0.752380000000    -0.0818148  
C336     C      0.426980000000     0.890940000000     0.735410000000    -0.00397132 
C337     C      0.424960000000     0.775500000000     0.926210000000    -0.00392648 
C338     C      0.448330000000     0.758500000000     0.903280000000    -0.0817222  
C339     C      0.448580000000     0.721640000000     0.901970000000    -0.00422963 
C340     C      0.426930000000     0.702130000000     0.924280000000    -0.0039443  
C341     C      0.403980000000     0.719130000000     0.947630000000    -0.0816816  
C342     C      0.402650000000     0.755990000000     0.947860000000    -0.00423712 
C343     C      0.597100000000     0.721640000000     0.901980000000    -0.00420295 
C344     C      0.597360000000     0.758500000000     0.903290000000    -0.0817123  
C345     C      0.620720000000     0.775500000000     0.926220000000    -0.00392174 
C346     C      0.643040000000     0.755980000000     0.947870000000    -0.00422037 
C347     C      0.641700000000     0.719120000000     0.947640000000    -0.0816991  
C348     C      0.618750000000     0.702120000000     0.924290000000    -0.00398102 
C349     C      0.736130000000     0.584670000000     0.119840000000    -0.00396152 
C350     C      0.753190000000     0.607590000000     0.096510000000    -0.0817919  
C351     C      0.790080000000     0.608880000000     0.096290000000    -0.00419523 
C352     C      0.809590000000     0.586570000000     0.117950000000    -0.00396024 
C353     C      0.792540000000     0.563230000000     0.140860000000    -0.081781   
C354     C      0.755640000000     0.563010000000     0.142150000000    -0.00421548 
C355     C      0.618750000000     0.702150000000     0.119840000000    -0.00390986 
C356     C      0.641700000000     0.719140000000     0.096490000000    -0.0818091  
C357     C      0.643030000000     0.756000000000     0.096250000000    -0.00422331 
C358     C      0.620720000000     0.775520000000     0.117900000000    -0.00392889 
C359     C      0.597340000000     0.758530000000     0.140830000000    -0.081839   
C360     C      0.597090000000     0.721670000000     0.142150000000    -0.00422086 
C361     C      0.902630000000     0.563000000000     0.754870000000    -0.00421664 
C362     C      0.903980000000     0.563250000000     0.791710000000    -0.0816816  
C363     C      0.926940000000     0.586620000000     0.808670000000    -0.00395603 
C364     C      0.948580000000     0.608930000000     0.789140000000    -0.0041835  
C365     C      0.948310000000     0.607600000000     0.752300000000    -0.081717   
C366     C      0.924930000000     0.584650000000     0.735340000000    -0.00393918 
C367     C      0.809590000000     0.586570000000     0.926200000000    -0.00391172 
C368     C      0.792540000000     0.563230000000     0.903290000000    -0.0816965  
C369     C      0.755640000000     0.563010000000     0.902000000000    -0.00423312 
C370     C      0.736140000000     0.584660000000     0.924320000000    -0.00397163 
C371     C      0.753190000000     0.607580000000     0.947650000000    -0.0816065  
C372     C      0.790090000000     0.608880000000     0.947860000000    -0.00427502 
C373     C      0.809600000000     0.391000000000     0.926200000000    -0.00393765 
C374     C      0.792550000000     0.414330000000     0.903280000000    -0.0817358  
C375     C      0.755650000000     0.414550000000     0.901990000000    -0.00421809 
C376     C      0.736140000000     0.392890000000     0.924300000000    -0.00396045 
C377     C      0.753190000000     0.369980000000     0.947640000000    -0.0817319  
C378     C      0.790090000000     0.368690000000     0.947860000000    -0.00418897 
C379     C      0.926950000000     0.390970000000     0.808680000000    -0.00393598 
C380     C      0.903990000000     0.414340000000     0.791710000000    -0.0817129  
C381     C      0.902640000000     0.414590000000     0.754870000000    -0.0042466  
C382     C      0.924950000000     0.392930000000     0.735350000000    -0.00388405 
C383     C      0.948330000000     0.369990000000     0.752320000000    -0.0817357  
C384     C      0.948600000000     0.368660000000     0.789160000000    -0.00421072 
Cu1      Cu     0.824980000000     0.488790000000     0.824310000000     0.838194   
Cu2      Cu     0.871120000000     0.488790000000     0.870250000000     0.84338    
Cu3      Cu     0.674610000000     0.640580000000     0.022080000000     0.843121   
Cu4      Cu     0.720720000000     0.686570000000     0.022070000000     0.837736   
Cu5      Cu     0.522850000000     0.837040000000     0.870310000000     0.843321   
Cu6      Cu     0.522850000000     0.790980000000     0.824330000000     0.838407   
Cu7      Cu     0.674580000000     0.988750000000     0.673870000000     0.84323    
Cu8      Cu     0.720720000000     0.988750000000     0.719810000000     0.837786   
Cu9      Cu     0.022830000000     0.686560000000     0.719760000000     0.838015   
Cu10     Cu     0.022820000000     0.640500000000     0.673770000000     0.843166   
Cu11     Cu     0.824970000000     0.791000000000     0.522010000000     0.838183   
Cu12     Cu     0.871090000000     0.836990000000     0.522010000000     0.843571   
Cu13     Cu     0.522860000000     0.140480000000     0.870320000000     0.843476   
Cu14     Cu     0.522860000000     0.186530000000     0.824320000000     0.838452   
Cu15     Cu     0.720720000000     0.290990000000     0.022060000000     0.837829   
Cu16     Cu     0.674600000000     0.336980000000     0.022050000000     0.843167   
Cu17     Cu     0.871110000000     0.488770000000     0.173880000000     0.843528   
Cu18     Cu     0.824970000000     0.488770000000     0.219830000000     0.838331   
Cu19     Cu     0.022850000000     0.640500000000     0.370300000000     0.8432     
Cu20     Cu     0.022860000000     0.686540000000     0.324310000000     0.837751   
Cu21     Cu     0.174620000000     0.836960000000     0.522040000000     0.843486   
Cu22     Cu     0.220740000000     0.790960000000     0.522040000000     0.838388   
Cu23     Cu     0.371140000000     0.988760000000     0.673850000000     0.843106   
Cu24     Cu     0.325000000000     0.988760000000     0.719800000000     0.83786    
Cu25     Cu     0.720680000000     0.988810000000     0.324290000000     0.837818   
Cu26     Cu     0.674540000000     0.988800000000     0.370240000000     0.843129   
Cu27     Cu     0.522830000000     0.791020000000     0.219770000000     0.8384     
Cu28     Cu     0.522830000000     0.837070000000     0.173780000000     0.843429   
Cu29     Cu     0.220700000000     0.488800000000     0.824270000000     0.838274   
Cu30     Cu     0.174560000000     0.488790000000     0.870220000000     0.843486   
Cu31     Cu     0.371080000000     0.640580000000     0.022050000000     0.84311    
Cu32     Cu     0.324960000000     0.686570000000     0.022050000000     0.837854   
Cu33     Cu     0.174550000000     0.488750000000     0.173850000000     0.843581   
Cu34     Cu     0.220700000000     0.488750000000     0.219790000000     0.838254   
Cu35     Cu     0.371070000000     0.336970000000     0.022010000000     0.843231   
Cu36     Cu     0.324950000000     0.290980000000     0.022010000000     0.837735   
Cu37     Cu     0.522810000000     0.186570000000     0.219770000000     0.838208   
Cu38     Cu     0.522810000000     0.140520000000     0.173780000000     0.843545   
Cu39     Cu     0.022830000000     0.291010000000     0.719790000000     0.837909   
Cu40     Cu     0.022830000000     0.337050000000     0.673790000000     0.8431     
Cu41     Cu     0.871060000000     0.140590000000     0.522060000000     0.843659   
Cu42     Cu     0.824940000000     0.186580000000     0.522070000000     0.838222   
Cu43     Cu     0.174600000000     0.140570000000     0.522070000000     0.843515   
Cu44     Cu     0.220710000000     0.186560000000     0.522070000000     0.838177   
Cu45     Cu     0.324960000000     0.988790000000     0.324290000000     0.837783   
Cu46     Cu     0.371110000000     0.988790000000     0.370230000000     0.843218   
Cu47     Cu     0.022840000000     0.337050000000     0.370330000000     0.843044   
Cu48     Cu     0.022830000000     0.291000000000     0.324340000000     0.837995   
H1       H      0.079180000000     0.207870000000     0.384700000000     0.0427895  
H2       H      0.121500000000     0.303900000000     0.427670000000     0.0425564  
H3       H      0.160340000000     0.269760000000     0.465770000000     0.0428053  
H4       H      0.117270000000     0.173730000000     0.423540000000     0.0425696  
H5       H      0.303880000000     0.126170000000     0.465710000000     0.0428557  
H6       H      0.207690000000     0.083220000000     0.423560000000     0.0425816  
H7       H      0.241810000000     0.045120000000     0.384710000000     0.0428733  
H8       H      0.338000000000     0.087330000000     0.427600000000     0.0425918  
H9       H      0.928350000000     0.173750000000     0.423510000000     0.0425979  
H10      H      0.885330000000     0.269780000000     0.465780000000     0.0428118  
H11      H      0.924180000000     0.303920000000     0.427680000000     0.0426221  
H12      H      0.966460000000     0.207890000000     0.384680000000     0.0428837  
H13      H      0.966480000000     0.207880000000     0.659440000000     0.0428762  
H14      H      0.924150000000     0.303910000000     0.616480000000     0.0425935  
H15      H      0.885310000000     0.269770000000     0.578380000000     0.0428263  
H16      H      0.928380000000     0.173740000000     0.620610000000     0.0426034  
H17      H      0.117290000000     0.173730000000     0.620620000000     0.0425688  
H18      H      0.160340000000     0.269760000000     0.578370000000     0.0428386  
H19      H      0.121500000000     0.303900000000     0.616460000000     0.0425671  
H20      H      0.079180000000     0.207880000000     0.659450000000     0.0427942  
H21      H      0.385290000000     0.045100000000     0.241110000000     0.0428675  
H22      H      0.428380000000     0.087410000000     0.337050000000     0.0425925  
H23      H      0.466470000000     0.126250000000     0.302900000000     0.0428268  
H24      H      0.424130000000     0.083200000000     0.206950000000     0.0425813  
H25      H      0.466460000000     0.269680000000     0.159410000000     0.042832   
H26      H      0.424160000000     0.173650000000     0.116430000000     0.0425584  
H27      H      0.385320000000     0.207790000000     0.078320000000     0.0428047  
H28      H      0.428360000000     0.303820000000     0.120560000000     0.0425569  
H29      H      0.303840000000     0.432400000000     0.159380000000     0.0428169  
H30      H      0.207650000000     0.390210000000     0.116470000000     0.0425339  
H31      H      0.241770000000     0.351380000000     0.078350000000     0.0428233  
H32      H      0.337960000000     0.394310000000     0.120520000000     0.0425853  
H33      H      0.160370000000     0.432450000000     0.302970000000     0.0428121  
H34      H      0.117250000000     0.390150000000     0.207040000000     0.0425362  
H35      H      0.079160000000     0.351320000000     0.241200000000     0.042795   
H36      H      0.121530000000     0.394360000000     0.337140000000     0.0425726  
H37      H      0.241780000000     0.626150000000     0.078380000000     0.0427969  
H38      H      0.337970000000     0.583220000000     0.120560000000     0.042572   
H39      H      0.303840000000     0.545110000000     0.159400000000     0.0428196  
H40      H      0.207650000000     0.587300000000     0.116480000000     0.0425344  
H41      H      0.117270000000     0.390190000000     0.837050000000     0.0425591  
H42      H      0.160350000000     0.432490000000     0.741100000000     0.0428036  
H43      H      0.121510000000     0.394380000000     0.706950000000     0.0425711  
H44      H      0.079180000000     0.351340000000     0.802900000000     0.0428109  
H45      H      0.207660000000     0.587340000000     0.927580000000     0.0425916  
H46      H      0.303850000000     0.545140000000     0.884680000000     0.0428394  
H47      H      0.337970000000     0.583230000000     0.923540000000     0.0426149  
H48      H      0.241780000000     0.626180000000     0.965700000000     0.0428655  
H49      H      0.207660000000     0.390230000000     0.927570000000     0.0426096  
H50      H      0.303850000000     0.432430000000     0.884660000000     0.0428512  
H51      H      0.337970000000     0.394320000000     0.923500000000     0.0425933  
H52      H      0.241780000000     0.351380000000     0.965660000000     0.0428715  
H53      H      0.466490000000     0.707890000000     0.159430000000     0.0428232  
H54      H      0.424160000000     0.803910000000     0.116450000000     0.0425277  
H55      H      0.385320000000     0.769760000000     0.078360000000     0.0427806  
H56      H      0.428390000000     0.673740000000     0.120600000000     0.0425581  
H57      H      0.428400000000     0.890190000000     0.337040000000     0.0425451  
H58      H      0.385310000000     0.932490000000     0.241100000000     0.0427778  
H59      H      0.424150000000     0.894400000000     0.206950000000     0.0425254  
H60      H      0.466490000000     0.851350000000     0.302890000000     0.0428274  
H61      H      0.803830000000     0.045160000000     0.384690000000     0.0429057  
H62      H      0.707640000000     0.087350000000     0.427610000000     0.0426188  
H63      H      0.741760000000     0.126190000000     0.465720000000     0.0428289  
H64      H      0.837950000000     0.083260000000     0.423540000000     0.0425906  
H65      H      0.617250000000     0.890200000000     0.337050000000     0.0425585  
H66      H      0.660330000000     0.932510000000     0.241110000000     0.0427956  
H67      H      0.621500000000     0.894410000000     0.206950000000     0.0425475  
H68      H      0.579160000000     0.851360000000     0.302900000000     0.0428291  
H69      H      0.660340000000     0.045120000000     0.241120000000     0.0428707  
H70      H      0.617220000000     0.087400000000     0.337060000000     0.0425826  
H71      H      0.579130000000     0.126230000000     0.302910000000     0.0428442  
H72      H      0.621500000000     0.083220000000     0.206960000000     0.0425732  
H73      H      0.303900000000     0.126160000000     0.578390000000     0.0428625  
H74      H      0.207710000000     0.083220000000     0.620580000000     0.0426095  
H75      H      0.241840000000     0.045110000000     0.659420000000     0.0428595  
H76      H      0.338030000000     0.087310000000     0.616490000000     0.0425839  
H77      H      0.207730000000     0.894300000000     0.620560000000     0.04255    
H78      H      0.303920000000     0.851370000000     0.578380000000     0.0428131  
H79      H      0.338040000000     0.890210000000     0.616490000000     0.0425702  
H80      H      0.241850000000     0.932400000000     0.659400000000     0.0427908  
H81      H      0.207720000000     0.894290000000     0.423530000000     0.042542   
H82      H      0.303920000000     0.851380000000     0.465700000000     0.0428209  
H83      H      0.338030000000     0.890230000000     0.427600000000     0.0425574  
H84      H      0.241830000000     0.932400000000     0.384680000000     0.0427875  
H85      H      0.121530000000     0.673630000000     0.427630000000     0.0425569  
H86      H      0.079220000000     0.769660000000     0.384650000000     0.042792   
H87      H      0.117320000000     0.803800000000     0.423490000000     0.0425482  
H88      H      0.160370000000     0.707770000000     0.465730000000     0.0428096  
H89      H      0.121520000000     0.583150000000     0.337140000000     0.0425475  
H90      H      0.079190000000     0.626200000000     0.241190000000     0.0427895  
H91      H      0.117280000000     0.587360000000     0.207040000000     0.042539   
H92      H      0.160350000000     0.545040000000     0.302980000000     0.0428096  
H93      H      0.885330000000     0.545080000000     0.303000000000     0.0428239  
H94      H      0.928410000000     0.587370000000     0.207050000000     0.0425842  
H95      H      0.966510000000     0.626210000000     0.241190000000     0.0428707  
H96      H      0.924170000000     0.583190000000     0.337150000000     0.0426101  
H97      H      0.885320000000     0.432470000000     0.303000000000     0.0428083  
H98      H      0.928400000000     0.390170000000     0.207060000000     0.0425732  
H99      H      0.966500000000     0.351330000000     0.241210000000     0.0428855  
H100     H      0.924160000000     0.394380000000     0.337160000000     0.0426113  
H101     H      0.803890000000     0.351370000000     0.078420000000     0.0428044  
H102     H      0.707690000000     0.394340000000     0.120560000000     0.0425837  
H103     H      0.741810000000     0.432430000000     0.159420000000     0.0428031  
H104     H      0.838010000000     0.390210000000     0.116530000000     0.0425667  
H105     H      0.660330000000     0.207800000000     0.078360000000     0.0428167  
H106     H      0.617280000000     0.303830000000     0.120590000000     0.042577   
H107     H      0.579170000000     0.269690000000     0.159420000000     0.0428101  
H108     H      0.621480000000     0.173650000000     0.116450000000     0.0425623  
H109     H      0.424190000000     0.083150000000     0.837130000000     0.0426219  
H110     H      0.466540000000     0.126200000000     0.741190000000     0.0428077  
H111     H      0.428440000000     0.087360000000     0.707040000000     0.0425973  
H112     H      0.385350000000     0.045060000000     0.802980000000     0.0428753  
H113     H      0.579210000000     0.269660000000     0.884660000000     0.0428265  
H114     H      0.621510000000     0.173640000000     0.927670000000     0.0426022  
H115     H      0.660350000000     0.207790000000     0.965760000000     0.0428873  
H116     H      0.617300000000     0.303810000000     0.923500000000     0.0425762  
H117     H      0.424180000000     0.173630000000     0.927630000000     0.0425992  
H118     H      0.466500000000     0.269660000000     0.884650000000     0.0428284  
H119     H      0.428390000000     0.303800000000     0.923470000000     0.0426021  
H120     H      0.385330000000     0.207780000000     0.965720000000     0.0428777  
H121     H      0.928410000000     0.803830000000     0.423470000000     0.0425812  
H122     H      0.885340000000     0.707810000000     0.465710000000     0.0428268  
H123     H      0.924190000000     0.673660000000     0.427630000000     0.0425851  
H124     H      0.966510000000     0.769680000000     0.384640000000     0.0428803  
H125     H      0.741790000000     0.851400000000     0.465680000000     0.0428031  
H126     H      0.837970000000     0.894360000000     0.423510000000     0.0425432  
H127     H      0.803840000000     0.932460000000     0.384670000000     0.0428106  
H128     H      0.707660000000     0.890250000000     0.427590000000     0.0425796  
H129     H      0.966490000000     0.769680000000     0.659390000000     0.0428821  
H130     H      0.924170000000     0.673660000000     0.616420000000     0.0425791  
H131     H      0.885340000000     0.707800000000     0.578320000000     0.0428402  
H132     H      0.928410000000     0.803830000000     0.620550000000     0.042585   
H133     H      0.121490000000     0.673630000000     0.616430000000     0.0425511  
H134     H      0.079210000000     0.769670000000     0.659420000000     0.0427683  
H135     H      0.117320000000     0.803800000000     0.620590000000     0.0425614  
H136     H      0.160340000000     0.707770000000     0.578340000000     0.0428038  
H137     H      0.160350000000     0.545100000000     0.741100000000     0.0428033  
H138     H      0.117250000000     0.587390000000     0.837050000000     0.0425385  
H139     H      0.079160000000     0.626230000000     0.802890000000     0.0428053  
H140     H      0.121500000000     0.583190000000     0.706950000000     0.0425626  
H141     H      0.803870000000     0.932420000000     0.659390000000     0.0428047  
H142     H      0.707680000000     0.890210000000     0.616500000000     0.0425636  
H143     H      0.741800000000     0.851390000000     0.578380000000     0.0428299  
H144     H      0.837990000000     0.894340000000     0.620530000000     0.0425942  
H145     H      0.660360000000     0.045040000000     0.803010000000     0.0429071  
H146     H      0.617300000000     0.087360000000     0.707060000000     0.0426117  
H147     H      0.579210000000     0.126200000000     0.741210000000     0.0428084  
H148     H      0.621530000000     0.083140000000     0.837160000000     0.0425801  
H149     H      0.803860000000     0.045130000000     0.659420000000     0.0428936  
H150     H      0.707650000000     0.087320000000     0.616520000000     0.0425915  
H151     H      0.741770000000     0.126170000000     0.578420000000     0.0428638  
H152     H      0.837970000000     0.083240000000     0.620570000000     0.0426108  
H153     H      0.579200000000     0.851300000000     0.741200000000     0.0428182  
H154     H      0.621540000000     0.894340000000     0.837140000000     0.0425571  
H155     H      0.660390000000     0.932440000000     0.802990000000     0.0428123  
H156     H      0.617300000000     0.890130000000     0.707050000000     0.0425611  
H157     H      0.466540000000     0.851320000000     0.741180000000     0.0427987  
H158     H      0.424170000000     0.894350000000     0.837130000000     0.0425444  
H159     H      0.385340000000     0.932450000000     0.802970000000     0.0427938  
H160     H      0.428450000000     0.890160000000     0.707030000000     0.0425647  
H161     H      0.424180000000     0.803900000000     0.927650000000     0.0425828  
H162     H      0.466480000000     0.707870000000     0.884670000000     0.0428424  
H163     H      0.428380000000     0.673730000000     0.923510000000     0.0425952  
H164     H      0.385340000000     0.769760000000     0.965750000000     0.042869   
H165     H      0.579200000000     0.707860000000     0.884680000000     0.0428336  
H166     H      0.621510000000     0.803900000000     0.927650000000     0.0425893  
H167     H      0.660350000000     0.769760000000     0.965760000000     0.0428649  
H168     H      0.617300000000     0.673730000000     0.923530000000     0.0426115  
H169     H      0.707700000000     0.583240000000     0.120590000000     0.0425713  
H170     H      0.803900000000     0.626170000000     0.078420000000     0.0427852  
H171     H      0.838020000000     0.587320000000     0.116520000000     0.0425782  
H172     H      0.741820000000     0.545140000000     0.159440000000     0.0428149  
H173     H      0.617290000000     0.673750000000     0.120620000000     0.0425548  
H174     H      0.660350000000     0.769770000000     0.078360000000     0.0427743  
H175     H      0.621500000000     0.803920000000     0.116450000000     0.0425373  
H176     H      0.579190000000     0.707900000000     0.159450000000     0.0428302  
H177     H      0.885310000000     0.545090000000     0.741120000000     0.042833   
H178     H      0.928410000000     0.587400000000     0.837050000000     0.0426192  
H179     H      0.966500000000     0.626240000000     0.802890000000     0.0428759  
H180     H      0.924140000000     0.583190000000     0.706960000000     0.0425894  
H181     H      0.838020000000     0.587340000000     0.927620000000     0.0426091  
H182     H      0.741830000000     0.545130000000     0.884720000000     0.0428483  
H183     H      0.707710000000     0.583220000000     0.923570000000     0.0426065  
H184     H      0.803900000000     0.626170000000     0.965730000000     0.0429057  
H185     H      0.838030000000     0.390250000000     0.927630000000     0.0426253  
H186     H      0.741840000000     0.432420000000     0.884700000000     0.0428447  
H187     H      0.707720000000     0.394320000000     0.923540000000     0.0426079  
H188     H      0.803910000000     0.351400000000     0.965730000000     0.0428796  
H189     H      0.928420000000     0.390190000000     0.837060000000     0.0426144  
H190     H      0.885320000000     0.432490000000     0.741120000000     0.0428429  
H191     H      0.924160000000     0.394390000000     0.706960000000     0.0425738  
H192     H      0.966510000000     0.351350000000     0.802910000000     0.0428851  
O1       O      0.854090000000     0.451410000000     0.799700000000    -0.381964   
O2       O      0.800420000000     0.526160000000     0.853440000000    -0.382114   
O3       O      0.854080000000     0.526170000000     0.799700000000    -0.381949   
O4       O      0.800430000000     0.451410000000     0.853440000000    -0.382152   
O5       O      0.842320000000     0.451130000000     0.894600000000    -0.383067   
O6       O      0.895430000000     0.526450000000     0.841420000000    -0.382962   
O7       O      0.842320000000     0.526440000000     0.894600000000    -0.383003   
O8       O      0.895430000000     0.451140000000     0.841420000000    -0.383082   
O9       O      0.703420000000     0.616240000000     0.059710000000    -0.383123   
O10      O      0.650290000000     0.669400000000     0.984440000000    -0.382883   
O11      O      0.703420000000     0.616230000000     0.984450000000    -0.382838   
O12      O      0.650280000000     0.669410000000     0.059710000000    -0.383037   
O13      O      0.691600000000     0.711170000000     0.059430000000    -0.382037   
O14      O      0.745300000000     0.657440000000     0.984720000000    -0.381821   
O15      O      0.691600000000     0.711170000000     0.984710000000    -0.381811   
O16      O      0.745290000000     0.657440000000     0.059440000000    -0.382097   
O17      O      0.560540000000     0.808240000000     0.894640000000    -0.38294    
O18      O      0.485160000000     0.861350000000     0.841500000000    -0.383028   
O19      O      0.485150000000     0.808240000000     0.894630000000    -0.383059   
O20      O      0.560550000000     0.861340000000     0.841510000000    -0.383055   
O21      O      0.560270000000     0.820080000000     0.799760000000    -0.382162   
O22      O      0.485430000000     0.766430000000     0.853430000000    -0.382126   
O23      O      0.485440000000     0.820090000000     0.799750000000    -0.382124   
O24      O      0.560260000000     0.766420000000     0.853440000000    -0.382048   
O25      O      0.650270000000     0.026400000000     0.702700000000    -0.382829   
O26      O      0.703380000000     0.951110000000     0.649520000000    -0.383167   
O27      O      0.650280000000     0.951090000000     0.702690000000    -0.383093   
O28      O      0.703370000000     0.026410000000     0.649530000000    -0.382857   
O29      O      0.745270000000     0.026140000000     0.690690000000    -0.381884   
O30      O      0.691620000000     0.951360000000     0.744410000000    -0.381915   
O31      O      0.745280000000     0.951380000000     0.690670000000    -0.382129   
O32      O      0.691610000000     0.026120000000     0.744420000000    -0.381778   
O33      O      0.985420000000     0.711120000000     0.690640000000    -0.38187    
O34      O      0.060240000000     0.657460000000     0.744330000000    -0.382051   
O35      O      0.060250000000     0.711110000000     0.690650000000    -0.382071   
O36      O      0.985410000000     0.657460000000     0.744330000000    -0.381971   
O37      O      0.985130000000     0.616200000000     0.702580000000    -0.382991   
O38      O      0.060520000000     0.669300000000     0.649450000000    -0.383055   
O39      O      0.060510000000     0.616190000000     0.702580000000    -0.382952   
O40      O      0.985140000000     0.669300000000     0.649450000000    -0.382942   
O41      O      0.800400000000     0.820140000000     0.484650000000    -0.382154   
O42      O      0.854100000000     0.766400000000     0.559370000000    -0.381975   
O43      O      0.800400000000     0.820130000000     0.559370000000    -0.382084   
O44      O      0.854090000000     0.766410000000     0.484650000000    -0.382111   
O45      O      0.895410000000     0.808170000000     0.484370000000    -0.38308    
O46      O      0.842280000000     0.861330000000     0.559650000000    -0.383057   
O47      O      0.895410000000     0.808170000000     0.559640000000    -0.383117   
O48      O      0.842270000000     0.861340000000     0.484380000000    -0.3831     
O49      O      0.560550000000     0.116170000000     0.841520000000    -0.383055   
O50      O      0.485160000000     0.169290000000     0.894630000000    -0.383027   
O51      O      0.485170000000     0.116170000000     0.841510000000    -0.383054   
O52      O      0.560550000000     0.169290000000     0.894640000000    -0.38305    
O53      O      0.560270000000     0.211090000000     0.853430000000    -0.382165   
O54      O      0.485450000000     0.157420000000     0.799750000000    -0.382143   
O55      O      0.485440000000     0.211090000000     0.853420000000    -0.382133   
O56      O      0.560280000000     0.157420000000     0.799760000000    -0.382123   
O57      O      0.745290000000     0.320120000000     0.059420000000    -0.381996   
O58      O      0.691600000000     0.266390000000     0.984700000000    -0.381914   
O59      O      0.745300000000     0.320120000000     0.984700000000    -0.38183    
O60      O      0.691590000000     0.266390000000     0.059410000000    -0.381971   
O61      O      0.650270000000     0.308160000000     0.059680000000    -0.383008   
O62      O      0.703420000000     0.361320000000     0.984420000000    -0.382967   
O63      O      0.650290000000     0.308150000000     0.984420000000    -0.382919   
O64      O      0.703410000000     0.361330000000     0.059690000000    -0.382984   
O65      O      0.842310000000     0.526430000000     0.149530000000    -0.382982   
O66      O      0.895420000000     0.451120000000     0.202700000000    -0.383023   
O67      O      0.842300000000     0.451120000000     0.149530000000    -0.38311    
O68      O      0.895420000000     0.526420000000     0.202700000000    -0.383138   
O69      O      0.854090000000     0.526150000000     0.244420000000    -0.382093   
O70      O      0.800410000000     0.451400000000     0.190700000000    -0.382087   
O71      O      0.854080000000     0.451390000000     0.244420000000    -0.382041   
O72      O      0.800420000000     0.526150000000     0.190700000000    -0.38208    
O73      O      0.985170000000     0.669300000000     0.394620000000    -0.382891   
O74      O      0.060540000000     0.616180000000     0.341500000000    -0.383033   
O75      O      0.060550000000     0.669290000000     0.394620000000    -0.383049   
O76      O      0.985160000000     0.616190000000     0.341510000000    -0.382939   
O77      O      0.985440000000     0.657440000000     0.299740000000    -0.381859   
O78      O      0.060280000000     0.711100000000     0.353420000000    -0.382087   
O79      O      0.060270000000     0.657430000000     0.299740000000    -0.381984   
O80      O      0.985450000000     0.711110000000     0.353420000000    -0.381967   
O81      O      0.150300000000     0.808130000000     0.559680000000    -0.383113   
O82      O      0.203440000000     0.861300000000     0.484410000000    -0.383211   
O83      O      0.150300000000     0.808130000000     0.484410000000    -0.383176   
O84      O      0.203440000000     0.861300000000     0.559680000000    -0.383147   
O85      O      0.245310000000     0.820100000000     0.559400000000    -0.382112   
O86      O      0.191620000000     0.766370000000     0.484680000000    -0.382101   
O87      O      0.245310000000     0.820100000000     0.484690000000    -0.382168   
O88      O      0.191610000000     0.766370000000     0.559400000000    -0.382211   
O89      O      0.395450000000     0.951110000000     0.702670000000    -0.38301    
O90      O      0.342330000000     0.026420000000     0.649510000000    -0.382837   
O91      O      0.395450000000     0.026410000000     0.702670000000    -0.382839   
O92      O      0.342330000000     0.951110000000     0.649500000000    -0.383043   
O93      O      0.300440000000     0.951380000000     0.690670000000    -0.381989   
O94      O      0.354120000000     0.026130000000     0.744400000000    -0.381829   
O95      O      0.300440000000     0.026140000000     0.690670000000    -0.381968   
O96      O      0.354110000000     0.951380000000     0.744390000000    -0.381998   
O97      O      0.691560000000     0.026190000000     0.299700000000    -0.381893   
O98      O      0.745240000000     0.951430000000     0.353410000000    -0.382037   
O99      O      0.691570000000     0.951430000000     0.299690000000    -0.382023   
O100     O      0.745240000000     0.026190000000     0.353420000000    -0.381808   
O101     O      0.703340000000     0.026460000000     0.394590000000    -0.382779   
O102     O      0.650240000000     0.951150000000     0.341420000000    -0.383102   
O103     O      0.703350000000     0.951150000000     0.394580000000    -0.38301    
O104     O      0.650230000000     0.026460000000     0.341420000000    -0.382921   
O105     O      0.560250000000     0.766460000000     0.190670000000    -0.382101   
O106     O      0.485410000000     0.820130000000     0.244340000000    -0.382065   
O107     O      0.485420000000     0.766460000000     0.190670000000    -0.382194   
O108     O      0.560240000000     0.820130000000     0.244340000000    -0.382131   
O109     O      0.560520000000     0.861380000000     0.202580000000    -0.383115   
O110     O      0.485140000000     0.808260000000     0.149460000000    -0.383104   
O111     O      0.485140000000     0.861380000000     0.202580000000    -0.383096   
O112     O      0.560530000000     0.808270000000     0.149470000000    -0.383147   
O113     O      0.191580000000     0.526180000000     0.799680000000    -0.38215    
O114     O      0.245260000000     0.451420000000     0.853400000000    -0.382121   
O115     O      0.191580000000     0.451420000000     0.799680000000    -0.38214    
O116     O      0.245260000000     0.526170000000     0.853400000000    -0.38207    
O117     O      0.203370000000     0.526450000000     0.894570000000    -0.383025   
O118     O      0.150250000000     0.451140000000     0.841400000000    -0.38312    
O119     O      0.203370000000     0.451140000000     0.894560000000    -0.383141   
O120     O      0.150250000000     0.526450000000     0.841400000000    -0.383178   
O121     O      0.395400000000     0.669400000000     0.059690000000    -0.382997   
O122     O      0.342260000000     0.616230000000     0.984420000000    -0.382827   
O123     O      0.395400000000     0.669400000000     0.984420000000    -0.382871   
O124     O      0.342260000000     0.616230000000     0.059680000000    -0.383022   
O125     O      0.300380000000     0.657430000000     0.059410000000    -0.382042   
O126     O      0.354080000000     0.711170000000     0.984700000000    -0.381828   
O127     O      0.300390000000     0.657440000000     0.984690000000    -0.381892   
O128     O      0.354080000000     0.711160000000     0.059410000000    -0.382038   
O129     O      0.150250000000     0.526400000000     0.202670000000    -0.38308    
O130     O      0.203350000000     0.451100000000     0.149500000000    -0.383165   
O131     O      0.150250000000     0.451100000000     0.202670000000    -0.383093   
O132     O      0.203360000000     0.526410000000     0.149500000000    -0.383122   
O133     O      0.245250000000     0.526130000000     0.190660000000    -0.382174   
O134     O      0.191590000000     0.451370000000     0.244390000000    -0.381995   
O135     O      0.245250000000     0.451370000000     0.190650000000    -0.382156   
O136     O      0.191590000000     0.526130000000     0.244390000000    -0.382069   
O137     O      0.395390000000     0.308140000000     0.984380000000    -0.382997   
O138     O      0.342250000000     0.361320000000     0.059640000000    -0.382975   
O139     O      0.395380000000     0.308150000000     0.059640000000    -0.383155   
O140     O      0.342260000000     0.361310000000     0.984370000000    -0.382913   
O141     O      0.300380000000     0.320110000000     0.984640000000    -0.381789   
O142     O      0.354070000000     0.266380000000     0.059370000000    -0.382079   
O143     O      0.300370000000     0.320110000000     0.059360000000    -0.382053   
O144     O      0.354080000000     0.266380000000     0.984650000000    -0.381906   
O145     O      0.485390000000     0.211130000000     0.190650000000    -0.382025   
O146     O      0.560220000000     0.157470000000     0.244340000000    -0.38216    
O147     O      0.560230000000     0.211130000000     0.190660000000    -0.382007   
O148     O      0.485390000000     0.157470000000     0.244340000000    -0.382066   
O149     O      0.485120000000     0.116210000000     0.202580000000    -0.38301    
O150     O      0.560510000000     0.169310000000     0.149460000000    -0.38303    
O151     O      0.560500000000     0.116210000000     0.202590000000    -0.383016   
O152     O      0.485120000000     0.169310000000     0.149460000000    -0.383137   
O153     O      0.985420000000     0.320120000000     0.744350000000    -0.381972   
O154     O      0.060250000000     0.266450000000     0.690680000000    -0.382107   
O155     O      0.060250000000     0.320120000000     0.744350000000    -0.382081   
O156     O      0.985410000000     0.266450000000     0.690680000000    -0.381858   
O157     O      0.985140000000     0.308260000000     0.649480000000    -0.382879   
O158     O      0.060530000000     0.361370000000     0.702590000000    -0.383004   
O159     O      0.060520000000     0.308250000000     0.649470000000    -0.383086   
O160     O      0.985140000000     0.361370000000     0.702590000000    -0.382783   
O161     O      0.842240000000     0.116250000000     0.484430000000    -0.383073   
O162     O      0.895380000000     0.169410000000     0.559700000000    -0.383066   
O163     O      0.842250000000     0.116240000000     0.559690000000    -0.383021   
O164     O      0.895380000000     0.169420000000     0.484430000000    -0.383091   
O165     O      0.854060000000     0.211180000000     0.484710000000    -0.382073   
O166     O      0.800370000000     0.157440000000     0.559430000000    -0.382066   
O167     O      0.854070000000     0.211170000000     0.559430000000    -0.382163   
O168     O      0.800370000000     0.157450000000     0.484710000000    -0.382139   
O169     O      0.203410000000     0.116220000000     0.559700000000    -0.382987   
O170     O      0.150270000000     0.169400000000     0.484440000000    -0.383108   
O171     O      0.203410000000     0.116230000000     0.484440000000    -0.383168   
O172     O      0.150280000000     0.169390000000     0.559710000000    -0.383036   
O173     O      0.191590000000     0.211160000000     0.559430000000    -0.382047   
O174     O      0.245280000000     0.157430000000     0.484710000000    -0.382107   
O175     O      0.191590000000     0.211160000000     0.484710000000    -0.382019   
O176     O      0.245290000000     0.157430000000     0.559420000000    -0.381966   
O177     O      0.300400000000     0.026160000000     0.353430000000    -0.381927   
O178     O      0.354080000000     0.951410000000     0.299690000000    -0.38214    
O179     O      0.300410000000     0.951400000000     0.353420000000    -0.38203    
O180     O      0.354060000000     0.026170000000     0.299690000000    -0.381847   
O181     O      0.395400000000     0.026450000000     0.341410000000    -0.383007   
O182     O      0.342310000000     0.951130000000     0.394580000000    -0.383053   
O183     O      0.395410000000     0.951140000000     0.341400000000    -0.383234   
O184     O      0.342300000000     0.026440000000     0.394580000000    -0.382889   
O185     O      0.060530000000     0.308250000000     0.394650000000    -0.383114   
O186     O      0.985150000000     0.361360000000     0.341520000000    -0.382948   
O187     O      0.985140000000     0.308260000000     0.394650000000    -0.382938   
O188     O      0.060530000000     0.361360000000     0.341520000000    -0.382959   
O189     O      0.060250000000     0.320090000000     0.299770000000    -0.382045   
O190     O      0.985410000000     0.266450000000     0.353450000000    -0.381946   
O191     O      0.985420000000     0.320100000000     0.299770000000    -0.381931   
O192     O      0.060250000000     0.266440000000     0.353450000000    -0.382042   


