data_structure

_audit_creation_method RASPA-1.0
_audit_creation_date 2023-5-22
_audit_author_name 'Poobodin Mano'

_cell_length_a    44.3486
_cell_length_b    44.348
_cell_length_c    44.4455
_cell_angle_alpha 90
_cell_angle_beta  90
_cell_angle_gamma 90
_cell_volume      87414.2

_symmetry_cell_setting          triclinic
_symmetry_space_group_name_Hall 'P 1'
_symmetry_space_group_name_H-M  'P 1'
_symmetry_Int_Tables_number     1

_symmetry_equiv_pos_as_xyz 'x,y,z'

loop_
_atom_site_label
_atom_site_type_symbol
_atom_site_fract_x
_atom_site_fract_y
_atom_site_fract_z
_atom_site_charge
C1       C      0.371050000000     0.811270000000     0.494350000000     0.349723   
C2       C      0.371480000000     0.931050000000     0.994930000000     0.348859   
C3       C      0.370750000000     0.871330000000     0.434860000000     0.349133   
C4       C      0.371840000000     0.870850000000     0.054490000000     0.348615   
C5       C      0.371110000000     0.811280000000     0.244840000000     0.349913   
C6       C      0.371510000000     0.931050000000     0.244660000000     0.349219   
C7       C      0.371870000000     0.870970000000     0.184880000000     0.348801   
C8       C      0.370780000000     0.871210000000     0.304510000000     0.348762   
C9       C      0.371520000000     0.061710000000     0.995370000000     0.349073   
C10      C      0.371270000000     0.181490000000     0.995690000000     0.350373   
C11      C      0.371450000000     0.121790000000     0.435690000000     0.348988   
C12      C      0.371350000000     0.121560000000     0.055320000000     0.34862    
C13      C      0.371550000000     0.061710000000     0.245420000000     0.349096   
C14      C      0.371160000000     0.181490000000     0.245510000000     0.349621   
C15      C      0.371430000000     0.121680000000     0.185690000000     0.349079   
C16      C      0.371330000000     0.121670000000     0.305320000000     0.34905    
C17      C      0.930800000000     0.620690000000     0.493790000000     0.349297   
C18      C      0.811020000000     0.620860000000     0.494570000000     0.349742   
C19      C      0.871240000000     0.620220000000     0.053890000000     0.348706   
C20      C      0.870450000000     0.621290000000     0.434260000000     0.348862   
C21      C      0.930800000000     0.620680000000     0.244620000000     0.349289   
C22      C      0.811030000000     0.620790000000     0.243320000000     0.349829   
C23      C      0.870290000000     0.621270000000     0.303870000000     0.348804   
C24      C      0.871400000000     0.620200000000     0.184240000000     0.349113   
C25      C      0.061450000000     0.620790000000     0.494690000000     0.349209   
C26      C      0.181230000000     0.621120000000     0.495100000000     0.349529   
C27      C      0.121570000000     0.621480000000     0.435130000000     0.349111   
C28      C      0.121260000000     0.620400000000     0.054750000000     0.348527   
C29      C      0.061460000000     0.620790000000     0.245000000000     0.349299   
C30      C      0.181230000000     0.621190000000     0.244950000000     0.349917   
C31      C      0.121370000000     0.620420000000     0.185140000000     0.348932   
C32      C      0.121460000000     0.621500000000     0.304770000000     0.348791   
C33      C      0.620870000000     0.061550000000     0.496180000000     0.349211   
C34      C      0.620990000000     0.181330000000     0.996830000000     0.350149   
C35      C      0.621480000000     0.121780000000     0.436680000000     0.348938   
C36      C      0.620390000000     0.121230000000     0.056310000000     0.348555   
C37      C      0.620820000000     0.061550000000     0.246580000000     0.349478   
C38      C      0.621150000000     0.181330000000     0.246250000000     0.349808   
C39      C      0.620420000000     0.121330000000     0.186670000000     0.348942   
C40      C      0.621510000000     0.121690000000     0.306300000000     0.348937   
C41      C      0.620860000000     0.930900000000     0.495370000000     0.349375   
C42      C      0.621000000000     0.811120000000     0.495110000000     0.349822   
C43      C      0.621460000000     0.870890000000     0.055060000000     0.34858    
C44      C      0.620370000000     0.870990000000     0.435430000000     0.348886   
C45      C      0.620800000000     0.930890000000     0.245570000000     0.349354   
C46      C      0.621010000000     0.811110000000     0.244960000000     0.349907   
C47      C      0.620360000000     0.870720000000     0.305070000000     0.349067   
C48      C      0.621440000000     0.871140000000     0.185440000000     0.348942   
C49      C      0.311010000000     0.371300000000     0.997930000000     0.346251   
C50      C      0.430770000000     0.371000000000     0.997350000000     0.345735   
C51      C      0.370750000000     0.311310000000     0.997040000000     0.34609    
C52      C      0.370940000000     0.431070000000     0.998050000000     0.345845   
C53      C      0.310980000000     0.371160000000     0.244770000000     0.349532   
C54      C      0.430730000000     0.371040000000     0.242340000000     0.349265   
C55      C      0.370770000000     0.311290000000     0.244380000000     0.34945    
C56      C      0.370820000000     0.431050000000     0.242720000000     0.349187   
C57      C      0.311040000000     0.621550000000     0.495560000000     0.349739   
C58      C      0.430800000000     0.621760000000     0.496080000000     0.349119   
C59      C      0.370740000000     0.681470000000     0.494810000000     0.349704   
C60      C      0.370940000000     0.561720000000     0.497030000000     0.349157   
C61      C      0.311040000000     0.621610000000     0.244280000000     0.349514   
C62      C      0.430800000000     0.621710000000     0.242930000000     0.349184   
C63      C      0.370800000000     0.681470000000     0.244360000000     0.34957    
C64      C      0.370880000000     0.561710000000     0.242790000000     0.349153   
C65      C      0.681160000000     0.371050000000     0.995950000000     0.346183   
C66      C      0.561410000000     0.370930000000     0.996930000000     0.346049   
C67      C      0.621330000000     0.311150000000     0.996840000000     0.346272   
C68      C      0.621330000000     0.430910000000     0.996190000000     0.345986   
C69      C      0.621370000000     0.311130000000     0.244080000000     0.349507   
C70      C      0.621300000000     0.430880000000     0.241590000000     0.348997   
C71      C      0.681150000000     0.371000000000     0.243710000000     0.349288   
C72      C      0.561390000000     0.370890000000     0.241950000000     0.348813   
C73      C      0.681200000000     0.621350000000     0.495560000000     0.349319   
C74      C      0.561450000000     0.621590000000     0.495740000000     0.348909   
C75      C      0.621400000000     0.681300000000     0.495240000000     0.34939    
C76      C      0.621320000000     0.561550000000     0.495920000000     0.349237   
C77      C      0.681200000000     0.621250000000     0.241950000000     0.349241   
C78      C      0.561450000000     0.621620000000     0.242270000000     0.348801   
C79      C      0.621490000000     0.681280000000     0.243070000000     0.349307   
C80      C      0.621250000000     0.561540000000     0.241220000000     0.348894   
C81      C      0.061410000000     0.371770000000     0.996650000000     0.349208   
C82      C      0.181180000000     0.371690000000     0.997530000000     0.35054    
C83      C      0.121010000000     0.372270000000     0.056880000000     0.348647   
C84      C      0.121720000000     0.371190000000     0.437260000000     0.349016   
C85      C      0.181180000000     0.371500000000     0.246840000000     0.349811   
C86      C      0.061400000000     0.371880000000     0.247140000000     0.349163   
C87      C      0.121550000000     0.371170000000     0.306870000000     0.349077   
C88      C      0.121180000000     0.372250000000     0.187250000000     0.349045   
C89      C      0.810980000000     0.371540000000     0.995490000000     0.350309   
C90      C      0.930760000000     0.371720000000     0.995680000000     0.349052   
C91      C      0.870770000000     0.371590000000     0.055400000000     0.348359   
C92      C      0.870820000000     0.371690000000     0.435770000000     0.349004   
C93      C      0.810960000000     0.371430000000     0.245300000000     0.349624   
C94      C      0.930740000000     0.371840000000     0.245930000000     0.349376   
C95      C      0.870550000000     0.371600000000     0.305410000000     0.349184   
C96      C      0.871000000000     0.371700000000     0.185780000000     0.349026   
C97      C      0.870740000000     0.344370000000     0.386330000000    -0.0052303  
C98      C      0.870730000000     0.371690000000     0.402410000000    -0.0816055  
C99      C      0.870600000000     0.398960000000     0.386290000000    -0.00518124 
C100     C      0.870520000000     0.398920000000     0.354850000000    -0.00515741 
C101     C      0.870540000000     0.371600000000     0.338760000000    -0.0817862  
C102     C      0.870640000000     0.344330000000     0.354880000000    -0.00505202 
C103     C      0.870920000000     0.344330000000     0.104890000000    -0.00531822 
C104     C      0.870820000000     0.371600000000     0.088760000000    -0.0808409  
C105     C      0.870800000000     0.398910000000     0.104840000000    -0.00522444 
C106     C      0.870870000000     0.398960000000     0.136290000000    -0.00487733 
C107     C      0.870980000000     0.371690000000     0.152420000000    -0.0816248  
C108     C      0.871010000000     0.344380000000     0.136340000000    -0.00493793 
C109     C      0.011830000000     0.399200000000     0.246510000000    -0.0049488  
C110     C      0.027970000000     0.371920000000     0.246940000000    -0.0813766  
C111     C      0.011830000000     0.344620000000     0.247050000000    -0.00499872 
C112     C      0.980320000000     0.344610000000     0.246710000000    -0.00495997 
C113     C      0.964170000000     0.371890000000     0.246250000000    -0.0814444  
C114     C      0.980300000000     0.399190000000     0.246170000000    -0.00496036 
C115     C      0.121430000000     0.398310000000     0.387770000000    -0.00535402 
C116     C      0.121790000000     0.371030000000     0.403900000000    -0.0816369  
C117     C      0.122140000000     0.343730000000     0.387810000000    -0.00512266 
C118     C      0.122080000000     0.343730000000     0.356330000000    -0.00502218 
C119     C      0.121670000000     0.371020000000     0.340230000000    -0.0816987  
C120     C      0.121360000000     0.398300000000     0.356350000000    -0.00527024 
C121     C      0.121540000000     0.399720000000     0.137800000000    -0.00476685 
C122     C      0.121080000000     0.372410000000     0.153890000000    -0.0815417  
C123     C      0.120530000000     0.345140000000     0.137770000000    -0.00510461 
C124     C      0.120470000000     0.345150000000     0.106350000000    -0.00526625 
C125     C      0.120960000000     0.372420000000     0.090240000000    -0.080904   
C126     C      0.121480000000     0.399720000000     0.106330000000    -0.00504822 
C127     C      0.011830000000     0.399060000000     0.496150000000    -0.00496927 
C128     C      0.027980000000     0.371770000000     0.996370000000    -0.0817916  
C129     C      0.011850000000     0.344470000000     0.996300000000    -0.00518712 
C130     C      0.980340000000     0.344460000000     0.996050000000    -0.00522293 
C131     C      0.964180000000     0.371750000000     0.995850000000    -0.0818291  
C132     C      0.980320000000     0.399050000000     0.495890000000    -0.00496123 
C133     C      0.762110000000     0.351610000000     0.225800000000    -0.00352713 
C134     C      0.777780000000     0.371290000000     0.244970000000    -0.0820033  
C135     C      0.761510000000     0.390830000000     0.263790000000    -0.00350364 
C136     C      0.729990000000     0.390320000000     0.263800000000    -0.00330812 
C137     C      0.714330000000     0.371050000000     0.244220000000    -0.0820156  
C138     C      0.730600000000     0.351870000000     0.225040000000    -0.00343982 
C139     C      0.620690000000     0.480550000000     0.268370000000    -0.00518557 
C140     C      0.621280000000     0.464300000000     0.241210000000    -0.0816862  
C141     C      0.621850000000     0.480350000000     0.213920000000    -0.00491022 
C142     C      0.621830000000     0.511910000000     0.213830000000    -0.00512367 
C143     C      0.621240000000     0.528100000000     0.241030000000    -0.0814212  
C144     C      0.620660000000     0.512020000000     0.268280000000    -0.0052959  
C145     C      0.730310000000     0.351950000000     0.476380000000    -0.00388197 
C146     C      0.714340000000     0.371260000000     0.995680000000    -0.084541   
C147     C      0.730310000000     0.390710000000     0.014840000000    -0.000999934
C148     C      0.761820000000     0.391200000000     0.014360000000     0.000179088
C149     C      0.777800000000     0.371480000000     0.995490000000    -0.086102   
C150     C      0.761840000000     0.351680000000     0.476670000000    -0.00348661 
C151     C      0.621450000000     0.480530000000     0.023310000000    -0.00221911 
C152     C      0.621330000000     0.464330000000     0.996090000000    -0.0843682  
C153     C      0.621220000000     0.480410000000     0.468840000000    -0.00515556 
C154     C      0.621200000000     0.511930000000     0.468800000000    -0.00515209 
C155     C      0.621330000000     0.528130000000     0.496020000000    -0.081751   
C156     C      0.621470000000     0.512040000000     0.023270000000    -0.0021362  
C157     C      0.480510000000     0.621770000000     0.269840000000    -0.00503636 
C158     C      0.464220000000     0.621730000000     0.242680000000    -0.081754   
C159     C      0.480220000000     0.621700000000     0.215370000000    -0.00498515 
C160     C      0.511750000000     0.621670000000     0.215230000000    -0.00524135 
C161     C      0.528020000000     0.621690000000     0.242400000000    -0.0814558  
C162     C      0.512010000000     0.621760000000     0.269700000000    -0.00520393 
C163     C      0.480300000000     0.621830000000     0.468780000000    -0.00504846 
C164     C      0.464230000000     0.621770000000     0.496060000000    -0.0816538  
C165     C      0.480430000000     0.621690000000     0.023240000000    -0.00222587 
C166     C      0.511960000000     0.621620000000     0.023130000000    -0.0022104  
C167     C      0.528020000000     0.621670000000     0.495840000000    -0.0815529  
C168     C      0.511810000000     0.621800000000     0.468670000000    -0.00517662 
C169     C      0.261480000000     0.352110000000     0.226200000000    -0.00332083 
C170     C      0.277810000000     0.371170000000     0.245440000000    -0.0821184  
C171     C      0.262210000000     0.390290000000     0.265220000000    -0.00326521 
C172     C      0.230680000000     0.390780000000     0.265330000000    -0.00346718 
C173     C      0.214360000000     0.371360000000     0.246440000000    -0.0820212  
C174     C      0.229970000000     0.351820000000     0.227080000000    -0.00347864 
C175     C      0.480200000000     0.370490000000     0.214670000000    -0.00489323 
C176     C      0.464160000000     0.370980000000     0.241970000000    -0.0817006  
C177     C      0.480410000000     0.371410000000     0.269120000000    -0.00511996 
C178     C      0.511880000000     0.371370000000     0.269030000000    -0.00528984 
C179     C      0.527960000000     0.370890000000     0.241780000000    -0.0814539  
C180     C      0.511760000000     0.370450000000     0.214570000000    -0.00514291 
C181     C      0.370390000000     0.480620000000     0.215280000000    -0.00493853 
C182     C      0.370830000000     0.464480000000     0.242520000000    -0.0816153  
C183     C      0.371290000000     0.480630000000     0.269740000000    -0.00524967 
C184     C      0.371300000000     0.512100000000     0.269760000000    -0.00524168 
C185     C      0.370870000000     0.528280000000     0.242560000000    -0.0815993  
C186     C      0.370410000000     0.512170000000     0.215300000000    -0.00495296 
C187     C      0.230460000000     0.391380000000     0.478990000000    -0.00351092 
C188     C      0.214370000000     0.371670000000     0.997780000000    -0.0860387  
C189     C      0.230220000000     0.351940000000     0.016750000000     0.000308993
C190     C      0.261740000000     0.352240000000     0.017270000000    -0.00119626 
C191     C      0.277830000000     0.371520000000     0.998050000000    -0.0845068  
C192     C      0.261970000000     0.390920000000     0.478740000000    -0.00346116 
C193     C      0.480240000000     0.370930000000     0.469970000000    -0.00515979 
C194     C      0.464190000000     0.370940000000     0.997240000000    -0.0842517  
C195     C      0.480420000000     0.370910000000     0.024440000000    -0.00222879 
C196     C      0.511940000000     0.370880000000     0.024360000000    -0.00217695 
C197     C      0.527990000000     0.370910000000     0.997080000000    -0.0843361  
C198     C      0.511750000000     0.370930000000     0.469890000000    -0.00512167 
C199     C      0.370530000000     0.480830000000     0.025130000000    -0.00213123 
C200     C      0.370960000000     0.464500000000     0.998020000000    -0.0841885  
C201     C      0.371390000000     0.480440000000     0.470680000000    -0.00521043 
C202     C      0.371390000000     0.511920000000     0.470420000000    -0.00526423 
C203     C      0.370960000000     0.528290000000     0.497500000000    -0.0816365  
C204     C      0.370530000000     0.512390000000     0.024870000000    -0.00203616 
C205     C      0.640790000000     0.761750000000     0.263300000000    -0.00341803 
C206     C      0.621070000000     0.777920000000     0.244590000000    -0.0822107  
C207     C      0.601480000000     0.762150000000     0.225400000000    -0.00344249 
C208     C      0.602000000000     0.730650000000     0.224540000000    -0.00361478 
C209     C      0.621350000000     0.714470000000     0.243620000000    -0.081984   
C210     C      0.640540000000     0.730220000000     0.263210000000    -0.00386574 
C211     C      0.601460000000     0.761930000000     0.014010000000     0.000253494
C212     C      0.621050000000     0.777940000000     0.495040000000    -0.0823425  
C213     C      0.640700000000     0.762020000000     0.476050000000    -0.00334549 
C214     C      0.640410000000     0.730490000000     0.475670000000    -0.00388518 
C215     C      0.621230000000     0.714480000000     0.495060000000    -0.0821295  
C216     C      0.601930000000     0.730410000000     0.014400000000    -0.000958343
C217     C      0.592910000000     0.870400000000     0.385990000000    -0.00512743 
C218     C      0.620220000000     0.870910000000     0.402080000000    -0.0816407  
C219     C      0.647490000000     0.871310000000     0.385960000000    -0.00532639 
C220     C      0.647480000000     0.871220000000     0.354540000000    -0.00514375 
C221     C      0.620210000000     0.870720000000     0.338420000000    -0.0817836  
C222     C      0.592910000000     0.870310000000     0.354520000000    -0.00496831 
C223     C      0.594330000000     0.871390000000     0.104540000000    -0.00536769 
C224     C      0.621610000000     0.870940000000     0.088420000000    -0.0808891  
C225     C      0.648910000000     0.870580000000     0.104520000000    -0.00521903 
C226     C      0.648900000000     0.870670000000     0.135990000000    -0.00481367 
C227     C      0.621600000000     0.871110000000     0.152080000000    -0.0816533  
C228     C      0.594330000000     0.871480000000     0.135960000000    -0.00496711 
C229     C      0.601830000000     0.230830000000     0.264700000000    -0.00348517 
C230     C      0.621280000000     0.214510000000     0.245830000000    -0.082028   
C231     C      0.640800000000     0.230120000000     0.226460000000    -0.00351155 
C232     C      0.640480000000     0.261630000000     0.225550000000    -0.00333429 
C233     C      0.621400000000     0.277960000000     0.244770000000    -0.0821238  
C234     C      0.602290000000     0.262360000000     0.264560000000    -0.00326598 
C235     C      0.593490000000     0.011980000000     0.246290000000    -0.00497655 
C236     C      0.620790000000     0.028120000000     0.246430000000    -0.0815091  
C237     C      0.648070000000     0.011970000000     0.246310000000    -0.00488032 
C238     C      0.648070000000     0.980460000000     0.246020000000    -0.00498552 
C239     C      0.620780000000     0.964320000000     0.245850000000    -0.0814698  
C240     C      0.593490000000     0.980460000000     0.246010000000    -0.00492141 
C241     C      0.640750000000     0.230420000000     0.015880000000     0.000171714
C242     C      0.621010000000     0.214510000000     0.996960000000    -0.0860193  
C243     C      0.601320000000     0.230540000000     0.478110000000    -0.00349109 
C244     C      0.601770000000     0.262050000000     0.477750000000    -0.00349047 
C245     C      0.621160000000     0.277970000000     0.997010000000    -0.0845682  
C246     C      0.640440000000     0.261950000000     0.016290000000    -0.00117087 
C247     C      0.648940000000     0.122210000000     0.387230000000    -0.00508615 
C248     C      0.621630000000     0.121850000000     0.403320000000    -0.0815997  
C249     C      0.594360000000     0.121490000000     0.387200000000    -0.00531318 
C250     C      0.594370000000     0.121460000000     0.355770000000    -0.00527579 
C251     C      0.621650000000     0.121780000000     0.339660000000    -0.0816101  
C252     C      0.648950000000     0.122180000000     0.355760000000    -0.0051123  
C253     C      0.592940000000     0.121690000000     0.105760000000    -0.00508608 
C254     C      0.620240000000     0.121190000000     0.089660000000    -0.0809888  
C255     C      0.647520000000     0.120700000000     0.105770000000    -0.005331   
C256     C      0.647530000000     0.120730000000     0.137190000000    -0.00506865 
C257     C      0.620260000000     0.121260000000     0.153320000000    -0.0816621  
C258     C      0.592950000000     0.121730000000     0.137230000000    -0.00477971 
C259     C      0.593560000000     0.011990000000     0.495840000000    -0.00500849 
C260     C      0.620860000000     0.028120000000     0.495960000000    -0.0814546  
C261     C      0.648140000000     0.011980000000     0.995840000000    -0.00518922 
C262     C      0.648140000000     0.980470000000     0.995630000000    -0.00520686 
C263     C      0.620850000000     0.964330000000     0.495530000000    -0.081538   
C264     C      0.593560000000     0.980470000000     0.495630000000    -0.00494931 
C265     C      0.230220000000     0.640910000000     0.225720000000    -0.00344685 
C266     C      0.214410000000     0.621340000000     0.244880000000    -0.0820898  
C267     C      0.230540000000     0.601940000000     0.263960000000    -0.00332232 
C268     C      0.262070000000     0.602460000000     0.264220000000    -0.00333985 
C269     C      0.277860000000     0.621620000000     0.244640000000    -0.0819891  
C270     C      0.261740000000     0.640660000000     0.225210000000    -0.00337978 
C271     C      0.230240000000     0.640830000000     0.014310000000     3.65923e-05
C272     C      0.214410000000     0.621240000000     0.495180000000    -0.0819784  
C273     C      0.230510000000     0.601790000000     0.476140000000    -0.00341823 
C274     C      0.262030000000     0.602300000000     0.475840000000    -0.00326251 
C275     C      0.277860000000     0.621490000000     0.495360000000    -0.0821601  
C276     C      0.261760000000     0.640570000000     0.014780000000    -0.000711114
C277     C      0.121210000000     0.594370000000     0.354230000000    -0.00527746 
C278     C      0.121520000000     0.621650000000     0.338120000000    -0.081654   
C279     C      0.121890000000     0.648950000000     0.354210000000    -0.00499892 
C280     C      0.121930000000     0.648950000000     0.385690000000    -0.00506722 
C281     C      0.121590000000     0.621640000000     0.401770000000    -0.081606   
C282     C      0.121240000000     0.594360000000     0.385650000000    -0.00534856 
C283     C      0.121790000000     0.592960000000     0.104210000000    -0.00502297 
C284     C      0.121260000000     0.620250000000     0.088110000000    -0.0809089  
C285     C      0.120750000000     0.647530000000     0.104230000000    -0.00537193 
C286     C      0.120790000000     0.647540000000     0.135650000000    -0.00515529 
C287     C      0.121330000000     0.620260000000     0.151780000000    -0.0815294  
C288     C      0.121830000000     0.592960000000     0.135690000000    -0.00481353 
C289     C      0.762150000000     0.640620000000     0.223760000000    -0.00335434 
C290     C      0.777850000000     0.620810000000     0.242790000000    -0.0822924  
C291     C      0.761600000000     0.601010000000     0.261340000000    -0.00339494 
C292     C      0.730090000000     0.601450000000     0.261320000000    -0.00364305 
C293     C      0.714390000000     0.620950000000     0.241980000000    -0.0819314  
C294     C      0.730630000000     0.640320000000     0.222980000000    -0.00391391 
C295     C      0.980390000000     0.593400000000     0.244700000000    -0.00491966 
C296     C      0.964230000000     0.620680000000     0.244820000000    -0.0814108  
C297     C      0.980350000000     0.647980000000     0.245070000000    -0.00500027 
C298     C      0.011860000000     0.648000000000     0.245150000000    -0.00491193 
C299     C      0.028030000000     0.620730000000     0.244990000000    -0.081417   
C300     C      0.011910000000     0.593420000000     0.244780000000    -0.00500768 
C301     C      0.761650000000     0.601250000000     0.976180000000    -0.00273064 
C302     C      0.777840000000     0.620910000000     0.494920000000    -0.0823213  
C303     C      0.762100000000     0.640630000000     0.514000000000    -0.00337395 
C304     C      0.730570000000     0.640360000000     0.514660000000    -0.00394519 
C305     C      0.714390000000     0.621110000000     0.495480000000    -0.0819916  
C306     C      0.730130000000     0.601730000000     0.976070000000    -0.00393318 
C307     C      0.869790000000     0.648730000000     0.353330000000    -0.00518914 
C308     C      0.870150000000     0.621420000000     0.337230000000    -0.081601   
C309     C      0.870510000000     0.594150000000     0.353360000000    -0.00533165 
C310     C      0.870560000000     0.594160000000     0.384780000000    -0.00523177 
C311     C      0.870260000000     0.621430000000     0.400900000000    -0.0816741  
C312     C      0.869840000000     0.648730000000     0.384800000000    -0.00508698 
C313     C      0.871960000000     0.647330000000     0.103360000000    -0.00524868 
C314     C      0.871410000000     0.620060000000     0.087240000000    -0.0809959  
C315     C      0.870960000000     0.592750000000     0.103330000000    -0.00508639 
C316     C      0.871020000000     0.592750000000     0.134800000000    -0.00475341 
C317     C      0.871520000000     0.620050000000     0.150890000000    -0.0816532  
C318     C      0.872020000000     0.647330000000     0.134780000000    -0.00501155 
C319     C      0.980390000000     0.593400000000     0.494190000000    -0.00492672 
C320     C      0.964230000000     0.620680000000     0.493880000000    -0.0815019  
C321     C      0.980350000000     0.647980000000     0.993820000000    -0.00517328 
C322     C      0.011860000000     0.648010000000     0.994090000000    -0.00525186 
C323     C      0.028030000000     0.620730000000     0.494430000000    -0.0814796  
C324     C      0.011910000000     0.593420000000     0.494460000000    -0.00504302 
C325     C      0.390550000000     0.230860000000     0.264210000000    -0.00350593 
C326     C      0.371010000000     0.214670000000     0.245330000000    -0.0819585  
C327     C      0.351320000000     0.230410000000     0.226230000000    -0.00365714 
C328     C      0.351590000000     0.261920000000     0.225600000000    -0.00324708 
C329     C      0.370770000000     0.278120000000     0.244830000000    -0.0822141  
C330     C      0.390040000000     0.262390000000     0.264350000000    -0.00324707 
C331     C      0.351360000000     0.230760000000     0.477280000000    -0.00350261 
C332     C      0.371180000000     0.214670000000     0.995960000000    -0.0861173  
C333     C      0.390840000000     0.230530000000     0.015000000000     0.000192522
C334     C      0.390310000000     0.262040000000     0.015740000000    -0.00101441 
C335     C      0.370870000000     0.278130000000     0.996680000000    -0.0845493  
C336     C      0.351590000000     0.262290000000     0.477250000000    -0.00382838 
C337     C      0.398660000000     0.121810000000     0.354750000000    -0.00514342 
C338     C      0.371340000000     0.121720000000     0.338670000000    -0.0817511  
C339     C      0.344080000000     0.121690000000     0.354810000000    -0.0050871  
C340     C      0.344130000000     0.121720000000     0.386250000000    -0.00517744 
C341     C      0.371440000000     0.121800000000     0.402330000000    -0.0816054  
C342     C      0.398710000000     0.121860000000     0.386200000000    -0.00521888 
C343     C      0.398660000000     0.121660000000     0.104760000000    -0.00517188 
C344     C      0.371350000000     0.121580000000     0.088680000000    -0.0809815  
C345     C      0.344080000000     0.121540000000     0.104800000000    -0.00521039 
C346     C      0.344120000000     0.121570000000     0.136240000000    -0.00499914 
C347     C      0.371430000000     0.121660000000     0.152330000000    -0.0816093  
C348     C      0.398700000000     0.121720000000     0.136210000000    -0.00488387 
C349     C      0.351410000000     0.762240000000     0.225720000000    -0.00356756 
C350     C      0.370970000000     0.778100000000     0.244860000000    -0.0820896  
C351     C      0.390360000000     0.762010000000     0.263980000000    -0.00336941 
C352     C      0.389860000000     0.730480000000     0.264290000000    -0.00328203 
C353     C      0.370730000000     0.714640000000     0.244710000000    -0.0821808  
C354     C      0.351680000000     0.730730000000     0.225260000000    -0.00331779 
C355     C      0.398870000000     0.980610000000     0.244640000000    -0.00499521 
C356     C      0.371570000000     0.964480000000     0.244790000000    -0.0813524  
C357     C      0.344280000000     0.980630000000     0.245170000000    -0.00503827 
C358     C      0.344290000000     0.012140000000     0.245390000000    -0.00493494 
C359     C      0.371580000000     0.028280000000     0.245240000000    -0.0813741  
C360     C      0.398870000000     0.012140000000     0.244860000000    -0.00495836 
C361     C      0.351330000000     0.762230000000     0.013400000000     9.24258e-05
C362     C      0.370870000000     0.778090000000     0.494260000000    -0.0820948  
C363     C      0.390220000000     0.762010000000     0.475090000000    -0.0033788  
C364     C      0.389700000000     0.730480000000     0.474740000000    -0.00332043 
C365     C      0.370600000000     0.714640000000     0.494350000000    -0.0821966  
C366     C      0.351580000000     0.730730000000     0.013830000000    -0.000708229
C367     C      0.343310000000     0.870990000000     0.385410000000    -0.00493105 
C368     C      0.370610000000     0.871360000000     0.401510000000    -0.0817251  
C369     C      0.397890000000     0.871710000000     0.385400000000    -0.0051133  
C370     C      0.397900000000     0.871670000000     0.353980000000    -0.00533084 
C371     C      0.370620000000     0.871280000000     0.337860000000    -0.0815139  
C372     C      0.343320000000     0.870950000000     0.353940000000    -0.00505666 
C373     C      0.344730000000     0.871310000000     0.103980000000    -0.00540843 
C374     C      0.372000000000     0.870800000000     0.087850000000    -0.0810206  
C375     C      0.399300000000     0.870310000000     0.103940000000    -0.00513706 
C376     C      0.399310000000     0.870350000000     0.135420000000    -0.00487461 
C377     C      0.372020000000     0.870890000000     0.151520000000    -0.08161    
C378     C      0.344740000000     0.871350000000     0.135400000000    -0.00513438 
C379     C      0.344250000000     0.980630000000     0.995200000000    -0.00522212 
C380     C      0.371530000000     0.964480000000     0.995060000000    -0.0816796  
C381     C      0.398830000000     0.980610000000     0.495040000000    -0.00504734 
C382     C      0.398840000000     0.012130000000     0.495140000000    -0.0049333  
C383     C      0.371550000000     0.028280000000     0.995270000000    -0.0817935  
C384     C      0.344260000000     0.012140000000     0.995310000000    -0.00519036 
C385     C      0.371050000000     0.811270000000     0.994350000000     0.350324   
C386     C      0.371480000000     0.931050000000     0.494930000000     0.349179   
C387     C      0.370750000000     0.871330000000     0.934860000000     0.348967   
C388     C      0.371840000000     0.870850000000     0.554490000000     0.349059   
C389     C      0.371110000000     0.811280000000     0.744840000000     0.349912   
C390     C      0.371510000000     0.931050000000     0.744660000000     0.349205   
C391     C      0.371870000000     0.870970000000     0.684880000000     0.348741   
C392     C      0.370780000000     0.871210000000     0.804510000000     0.348843   
C393     C      0.371520000000     0.061710000000     0.495360000000     0.349394   
C394     C      0.371270000000     0.181490000000     0.495690000000     0.34975    
C395     C      0.371450000000     0.121790000000     0.935690000000     0.348829   
C396     C      0.371350000000     0.121560000000     0.555320000000     0.349152   
C397     C      0.371550000000     0.061710000000     0.745420000000     0.349092   
C398     C      0.371160000000     0.181490000000     0.745500000000     0.349631   
C399     C      0.371430000000     0.121680000000     0.685690000000     0.349013   
C400     C      0.371330000000     0.121670000000     0.805320000000     0.349063   
C401     C      0.930800000000     0.620690000000     0.993790000000     0.348978   
C402     C      0.811020000000     0.620860000000     0.994560000000     0.350361   
C403     C      0.871240000000     0.620220000000     0.553890000000     0.349144   
C404     C      0.870450000000     0.621290000000     0.934260000000     0.348697   
C405     C      0.930800000000     0.620680000000     0.744620000000     0.34928    
C406     C      0.811030000000     0.620790000000     0.743320000000     0.349818   
C407     C      0.870290000000     0.621270000000     0.803870000000     0.348811   
C408     C      0.871400000000     0.620200000000     0.684240000000     0.349061   
C409     C      0.061450000000     0.620790000000     0.994700000000     0.348888   
C410     C      0.181230000000     0.621120000000     0.995100000000     0.350132   
C411     C      0.121570000000     0.621480000000     0.935130000000     0.34895    
C412     C      0.121260000000     0.620400000000     0.554750000000     0.348972   
C413     C      0.061460000000     0.620790000000     0.745000000000     0.34929    
C414     C      0.181230000000     0.621190000000     0.744950000000     0.34992    
C415     C      0.121370000000     0.620420000000     0.685140000000     0.348877   
C416     C      0.121460000000     0.621500000000     0.804770000000     0.348802   
C417     C      0.620870000000     0.061550000000     0.996180000000     0.348891   
C418     C      0.620990000000     0.181330000000     0.496830000000     0.349528   
C419     C      0.621480000000     0.121780000000     0.936680000000     0.348775   
C420     C      0.620390000000     0.121230000000     0.556310000000     0.348995   
C421     C      0.620820000000     0.061550000000     0.746580000000     0.349465   
C422     C      0.621150000000     0.181330000000     0.746250000000     0.349817   
C423     C      0.620420000000     0.121330000000     0.686670000000     0.348879   
C424     C      0.621510000000     0.121690000000     0.806300000000     0.349021   
C425     C      0.620860000000     0.930900000000     0.995370000000     0.349053   
C426     C      0.621000000000     0.811120000000     0.995110000000     0.350438   
C427     C      0.621460000000     0.870890000000     0.555060000000     0.349052   
C428     C      0.620370000000     0.870990000000     0.935440000000     0.348885   
C429     C      0.620800000000     0.930890000000     0.745570000000     0.349345   
C430     C      0.621010000000     0.811110000000     0.744960000000     0.34991    
C431     C      0.620360000000     0.870720000000     0.805070000000     0.348988   
C432     C      0.621440000000     0.871140000000     0.685440000000     0.348884   
C433     C      0.311010000000     0.371300000000     0.497930000000     0.349471   
C434     C      0.430770000000     0.371000000000     0.497350000000     0.348875   
C435     C      0.370750000000     0.311310000000     0.497040000000     0.349331   
C436     C      0.370940000000     0.431070000000     0.498050000000     0.348956   
C437     C      0.310980000000     0.371160000000     0.744770000000     0.34956    
C438     C      0.430730000000     0.371040000000     0.742340000000     0.349032   
C439     C      0.370770000000     0.311290000000     0.744380000000     0.349466   
C440     C      0.370820000000     0.431050000000     0.742720000000     0.349207   
C441     C      0.311040000000     0.621550000000     0.995560000000     0.346485   
C442     C      0.430800000000     0.621760000000     0.996080000000     0.345979   
C443     C      0.370740000000     0.681470000000     0.994810000000     0.346452   
C444     C      0.370940000000     0.561720000000     0.997030000000     0.346021   
C445     C      0.311040000000     0.621610000000     0.744280000000     0.349521   
C446     C      0.430800000000     0.621710000000     0.742930000000     0.349186   
C447     C      0.370800000000     0.681470000000     0.744360000000     0.349578   
C448     C      0.370880000000     0.561710000000     0.742790000000     0.349166   
C449     C      0.681160000000     0.371050000000     0.495950000000     0.349395   
C450     C      0.561410000000     0.370930000000     0.496930000000     0.349141   
C451     C      0.621330000000     0.311150000000     0.496840000000     0.349464   
C452     C      0.621330000000     0.430910000000     0.496190000000     0.348849   
C453     C      0.621370000000     0.311130000000     0.744080000000     0.349518   
C454     C      0.621300000000     0.430880000000     0.741590000000     0.349009   
C455     C      0.681150000000     0.371000000000     0.743720000000     0.349291   
C456     C      0.561390000000     0.370890000000     0.741950000000     0.349089   
C457     C      0.681200000000     0.621350000000     0.995550000000     0.346109   
C458     C      0.561450000000     0.621590000000     0.995740000000     0.346026   
C459     C      0.621400000000     0.681300000000     0.995240000000     0.346156   
C460     C      0.621320000000     0.561550000000     0.995920000000     0.346118   
C461     C      0.681200000000     0.621250000000     0.741950000000     0.349251   
C462     C      0.561450000000     0.621620000000     0.742270000000     0.348816   
C463     C      0.621490000000     0.681280000000     0.743070000000     0.349314   
C464     C      0.621250000000     0.561540000000     0.741220000000     0.348904   
C465     C      0.061410000000     0.371770000000     0.496650000000     0.349523   
C466     C      0.181180000000     0.371690000000     0.497530000000     0.349916   
C467     C      0.121010000000     0.372270000000     0.556880000000     0.349085   
C468     C      0.121720000000     0.371190000000     0.937260000000     0.348776   
C469     C      0.181180000000     0.371500000000     0.746830000000     0.349804   
C470     C      0.061400000000     0.371880000000     0.747140000000     0.349156   
C471     C      0.121550000000     0.371170000000     0.806880000000     0.348965   
C472     C      0.121180000000     0.372250000000     0.687250000000     0.348984   
C473     C      0.810980000000     0.371540000000     0.495490000000     0.349692   
C474     C      0.930760000000     0.371720000000     0.495680000000     0.349372   
C475     C      0.870770000000     0.371590000000     0.555400000000     0.3488     
C476     C      0.870820000000     0.371690000000     0.935770000000     0.348926   
C477     C      0.810960000000     0.371430000000     0.745300000000     0.349636   
C478     C      0.930740000000     0.371840000000     0.745930000000     0.349372   
C479     C      0.870550000000     0.371600000000     0.805410000000     0.349115   
C480     C      0.871000000000     0.371700000000     0.685780000000     0.348977   
C481     C      0.870740000000     0.344370000000     0.886330000000    -0.00521797 
C482     C      0.870730000000     0.371690000000     0.902420000000    -0.0816864  
C483     C      0.870600000000     0.398960000000     0.886290000000    -0.00514959 
C484     C      0.870520000000     0.398920000000     0.854850000000    -0.00518565 
C485     C      0.870540000000     0.371600000000     0.838760000000    -0.0817629  
C486     C      0.870640000000     0.344330000000     0.854880000000    -0.00509603 
C487     C      0.870920000000     0.344330000000     0.604890000000    -0.00526609 
C488     C      0.870820000000     0.371600000000     0.588760000000    -0.0815415  
C489     C      0.870800000000     0.398910000000     0.604840000000    -0.00515356 
C490     C      0.870870000000     0.398960000000     0.636290000000    -0.00511763 
C491     C      0.870980000000     0.371690000000     0.652420000000    -0.0816272  
C492     C      0.871010000000     0.344380000000     0.636330000000    -0.00518222 
C493     C      0.011830000000     0.399200000000     0.746510000000    -0.00497662 
C494     C      0.027970000000     0.371920000000     0.746940000000    -0.0814201  
C495     C      0.011830000000     0.344620000000     0.747050000000    -0.00503981 
C496     C      0.980320000000     0.344610000000     0.746720000000    -0.00500109 
C497     C      0.964170000000     0.371890000000     0.746250000000    -0.0814903  
C498     C      0.980300000000     0.399190000000     0.746170000000    -0.00498799 
C499     C      0.121430000000     0.398310000000     0.887770000000    -0.0053897  
C500     C      0.121790000000     0.371030000000     0.903900000000    -0.0815822  
C501     C      0.122140000000     0.343730000000     0.887800000000    -0.00517508 
C502     C      0.122080000000     0.343730000000     0.856330000000    -0.00500867 
C503     C      0.121670000000     0.371020000000     0.840230000000    -0.0817792  
C504     C      0.121360000000     0.398300000000     0.856350000000    -0.00522771 
C505     C      0.121540000000     0.399720000000     0.637800000000    -0.0050224  
C506     C      0.121080000000     0.372410000000     0.653890000000    -0.0815361  
C507     C      0.120530000000     0.345140000000     0.637770000000    -0.00535921 
C508     C      0.120470000000     0.345150000000     0.606350000000    -0.00519833 
C509     C      0.120960000000     0.372420000000     0.590240000000    -0.0816188  
C510     C      0.121480000000     0.399720000000     0.606330000000    -0.00497034 
C511     C      0.011830000000     0.399060000000     0.996150000000    -0.005174   
C512     C      0.027980000000     0.371770000000     0.496370000000    -0.081535   
C513     C      0.011850000000     0.344470000000     0.496300000000    -0.00497103 
C514     C      0.980340000000     0.344460000000     0.496060000000    -0.00500543 
C515     C      0.964180000000     0.371750000000     0.495850000000    -0.0815759  
C516     C      0.980320000000     0.399050000000     0.995890000000    -0.00516812 
C517     C      0.762110000000     0.351610000000     0.725800000000    -0.00353133 
C518     C      0.777780000000     0.371290000000     0.744970000000    -0.082036   
C519     C      0.761510000000     0.390830000000     0.763790000000    -0.00349637 
C520     C      0.729990000000     0.390320000000     0.763800000000    -0.0033254  
C521     C      0.714330000000     0.371050000000     0.744220000000    -0.0820171  
C522     C      0.730600000000     0.351870000000     0.725040000000    -0.00348794 
C523     C      0.620690000000     0.480550000000     0.768370000000    -0.00517717 
C524     C      0.621280000000     0.464300000000     0.741210000000    -0.0816904  
C525     C      0.621850000000     0.480350000000     0.713920000000    -0.00491708 
C526     C      0.621830000000     0.511910000000     0.713830000000    -0.00513109 
C527     C      0.621240000000     0.528100000000     0.741030000000    -0.0814239  
C528     C      0.620660000000     0.512020000000     0.768280000000    -0.00528873 
C529     C      0.730310000000     0.351950000000     0.976380000000    -0.00416822 
C530     C      0.714340000000     0.371260000000     0.495680000000    -0.0821534  
C531     C      0.730310000000     0.390710000000     0.514840000000    -0.00359709 
C532     C      0.761820000000     0.391200000000     0.514360000000    -0.00350737 
C533     C      0.777800000000     0.371480000000     0.495490000000    -0.0822697  
C534     C      0.761840000000     0.351680000000     0.976670000000    -0.00281193 
C535     C      0.621450000000     0.480530000000     0.523310000000    -0.00514263 
C536     C      0.621330000000     0.464330000000     0.496090000000    -0.0816211  
C537     C      0.621220000000     0.480410000000     0.968840000000    -0.0050067  
C538     C      0.621200000000     0.511930000000     0.968800000000    -0.00509003 
C539     C      0.621330000000     0.528130000000     0.996020000000    -0.084339   
C540     C      0.621470000000     0.512040000000     0.523270000000    -0.00498952 
C541     C      0.480510000000     0.621770000000     0.769840000000    -0.00507912 
C542     C      0.464220000000     0.621730000000     0.742680000000    -0.0817348  
C543     C      0.480220000000     0.621700000000     0.715370000000    -0.00500234 
C544     C      0.511750000000     0.621670000000     0.715230000000    -0.00523813 
C545     C      0.528020000000     0.621690000000     0.742400000000    -0.0814686  
C546     C      0.512010000000     0.621760000000     0.769700000000    -0.00516994 
C547     C      0.480300000000     0.621830000000     0.968780000000    -0.00501638 
C548     C      0.464230000000     0.621770000000     0.996070000000    -0.0842375  
C549     C      0.480430000000     0.621690000000     0.523240000000    -0.00511129 
C550     C      0.511960000000     0.621620000000     0.523130000000    -0.00512475 
C551     C      0.528020000000     0.621670000000     0.995840000000    -0.0842946  
C552     C      0.511810000000     0.621800000000     0.968670000000    -0.00501866 
C553     C      0.261480000000     0.352110000000     0.726200000000    -0.00333802 
C554     C      0.277810000000     0.371170000000     0.745440000000    -0.0821448  
C555     C      0.262210000000     0.390290000000     0.765220000000    -0.00326884 
C556     C      0.230680000000     0.390780000000     0.765330000000    -0.00346463 
C557     C      0.214360000000     0.371360000000     0.746440000000    -0.0820427  
C558     C      0.229970000000     0.351820000000     0.727080000000    -0.00351417 
C559     C      0.480200000000     0.370490000000     0.714670000000    -0.00497494 
C560     C      0.464160000000     0.370980000000     0.741970000000    -0.0815853  
C561     C      0.480410000000     0.371410000000     0.769120000000    -0.00518614 
C562     C      0.511880000000     0.371370000000     0.769030000000    -0.00520546 
C563     C      0.527960000000     0.370890000000     0.741780000000    -0.0815857  
C564     C      0.511760000000     0.370450000000     0.714570000000    -0.00507473 
C565     C      0.370390000000     0.480620000000     0.715280000000    -0.00499394 
C566     C      0.370830000000     0.464480000000     0.742520000000    -0.0816082  
C567     C      0.371290000000     0.480630000000     0.769740000000    -0.00524783 
C568     C      0.371300000000     0.512100000000     0.769760000000    -0.00522686 
C569     C      0.370870000000     0.528280000000     0.742560000000    -0.0816125  
C570     C      0.370410000000     0.512170000000     0.715300000000    -0.00493948 
C571     C      0.230460000000     0.391380000000     0.979000000000    -0.00275195 
C572     C      0.214370000000     0.371670000000     0.497780000000    -0.0821719  
C573     C      0.230220000000     0.351940000000     0.516750000000    -0.00340301 
C574     C      0.261740000000     0.352240000000     0.517270000000    -0.00377374 
C575     C      0.277830000000     0.371520000000     0.498050000000    -0.0821728  
C576     C      0.261970000000     0.390920000000     0.978740000000    -0.0037783  
C577     C      0.480240000000     0.370930000000     0.969970000000    -0.00507174 
C578     C      0.464190000000     0.370940000000     0.497240000000    -0.0816244  
C579     C      0.480420000000     0.370910000000     0.524440000000    -0.0050941  
C580     C      0.511940000000     0.370880000000     0.524360000000    -0.0050622  
C581     C      0.527990000000     0.370910000000     0.497080000000    -0.0817155  
C582     C      0.511750000000     0.370930000000     0.969890000000    -0.00502567 
C583     C      0.370530000000     0.480830000000     0.525130000000    -0.00504247 
C584     C      0.370960000000     0.464500000000     0.498020000000    -0.0815826  
C585     C      0.371390000000     0.480440000000     0.970680000000    -0.00511168 
C586     C      0.371390000000     0.511920000000     0.970420000000    -0.00513028 
C587     C      0.370960000000     0.528290000000     0.997490000000    -0.0842263  
C588     C      0.370530000000     0.512390000000     0.524870000000    -0.00489213 
C589     C      0.640790000000     0.761750000000     0.763300000000    -0.00344846 
C590     C      0.621070000000     0.777920000000     0.744580000000    -0.082234   
C591     C      0.601480000000     0.762150000000     0.725400000000    -0.00343334 
C592     C      0.602000000000     0.730650000000     0.724540000000    -0.00364177 
C593     C      0.621350000000     0.714470000000     0.743620000000    -0.0819971  
C594     C      0.640540000000     0.730220000000     0.763210000000    -0.00386818 
C595     C      0.601460000000     0.761930000000     0.514010000000    -0.0034376  
C596     C      0.621050000000     0.777940000000     0.995040000000    -0.0861791  
C597     C      0.640700000000     0.762020000000     0.976050000000    -0.00266629 
C598     C      0.640410000000     0.730490000000     0.975670000000    -0.00417604 
C599     C      0.621230000000     0.714480000000     0.995060000000    -0.0845056  
C600     C      0.601930000000     0.730410000000     0.514400000000    -0.00355114 
C601     C      0.592910000000     0.870400000000     0.885990000000    -0.00514249 
C602     C      0.620220000000     0.870910000000     0.902080000000    -0.0815608  
C603     C      0.647490000000     0.871310000000     0.885960000000    -0.0053576  
C604     C      0.647480000000     0.871220000000     0.854540000000    -0.00519125 
C605     C      0.620210000000     0.870720000000     0.838430000000    -0.0816712  
C606     C      0.592910000000     0.870310000000     0.854520000000    -0.00502658 
C607     C      0.594330000000     0.871390000000     0.604540000000    -0.00528683 
C608     C      0.621610000000     0.870940000000     0.588420000000    -0.0816031  
C609     C      0.648910000000     0.870580000000     0.604520000000    -0.00515713 
C610     C      0.648900000000     0.870670000000     0.636000000000    -0.00507876 
C611     C      0.621600000000     0.871110000000     0.652080000000    -0.0816407  
C612     C      0.594330000000     0.871480000000     0.635960000000    -0.00521673 
C613     C      0.601830000000     0.230830000000     0.764700000000    -0.00348435 
C614     C      0.621280000000     0.214510000000     0.745830000000    -0.0820545  
C615     C      0.640800000000     0.230120000000     0.726460000000    -0.00353108 
C616     C      0.640480000000     0.261630000000     0.725550000000    -0.00335844 
C617     C      0.621400000000     0.277960000000     0.744770000000    -0.0821387  
C618     C      0.602290000000     0.262360000000     0.764560000000    -0.00327159 
C619     C      0.593490000000     0.011980000000     0.746290000000    -0.00500546 
C620     C      0.620790000000     0.028120000000     0.746430000000    -0.0815509  
C621     C      0.648070000000     0.011970000000     0.746310000000    -0.00492267 
C622     C      0.648070000000     0.980460000000     0.746020000000    -0.00502672 
C623     C      0.620780000000     0.964320000000     0.745850000000    -0.0815148  
C624     C      0.593490000000     0.980460000000     0.746010000000    -0.0049487  
C625     C      0.640750000000     0.230420000000     0.515880000000    -0.00352369 
C626     C      0.621010000000     0.214510000000     0.496960000000    -0.0821669  
C627     C      0.601320000000     0.230540000000     0.978110000000    -0.00277621 
C628     C      0.601770000000     0.262050000000     0.977750000000    -0.00378964 
C629     C      0.621160000000     0.277970000000     0.497010000000    -0.0822052  
C630     C      0.640440000000     0.261950000000     0.516290000000    -0.00376123 
C631     C      0.648940000000     0.122210000000     0.887230000000    -0.0051273  
C632     C      0.621630000000     0.121850000000     0.903320000000    -0.0815642  
C633     C      0.594360000000     0.121490000000     0.887200000000    -0.00533527 
C634     C      0.594370000000     0.121460000000     0.855770000000    -0.00526247 
C635     C      0.621650000000     0.121780000000     0.839660000000    -0.0816353  
C636     C      0.648950000000     0.122180000000     0.855760000000    -0.00510953 
C637     C      0.592940000000     0.121690000000     0.605760000000    -0.00503167 
C638     C      0.620240000000     0.121190000000     0.589660000000    -0.0816832  
C639     C      0.647520000000     0.120700000000     0.605770000000    -0.00526735 
C640     C      0.647530000000     0.120730000000     0.637190000000    -0.00532151 
C641     C      0.620260000000     0.121260000000     0.653320000000    -0.0816478  
C642     C      0.592950000000     0.121730000000     0.637230000000    -0.00503591 
C643     C      0.593560000000     0.011990000000     0.995840000000    -0.00521407 
C644     C      0.620860000000     0.028120000000     0.995960000000    -0.0817105  
C645     C      0.648140000000     0.011980000000     0.495840000000    -0.00497269 
C646     C      0.648140000000     0.980470000000     0.495630000000    -0.00498945 
C647     C      0.620850000000     0.964330000000     0.995530000000    -0.0817916  
C648     C      0.593560000000     0.980470000000     0.995630000000    -0.00515681 
C649     C      0.230220000000     0.640910000000     0.725720000000    -0.00346611 
C650     C      0.214410000000     0.621340000000     0.744880000000    -0.082116   
C651     C      0.230540000000     0.601940000000     0.763960000000    -0.00332552 
C652     C      0.262070000000     0.602460000000     0.764220000000    -0.00334696 
C653     C      0.277860000000     0.621620000000     0.744640000000    -0.082003   
C654     C      0.261740000000     0.640660000000     0.725210000000    -0.0034052  
C655     C      0.230240000000     0.640830000000     0.514300000000    -0.00357041 
C656     C      0.214410000000     0.621240000000     0.995180000000    -0.0857794  
C657     C      0.230510000000     0.601790000000     0.976140000000    -0.00274602 
C658     C      0.262030000000     0.602300000000     0.975840000000    -0.00352498 
C659     C      0.277860000000     0.621490000000     0.995360000000    -0.0845423  
C660     C      0.261760000000     0.640570000000     0.514780000000    -0.00332278 
C661     C      0.121210000000     0.594370000000     0.854230000000    -0.0052661  
C662     C      0.121520000000     0.621650000000     0.838120000000    -0.0816701  
C663     C      0.121890000000     0.648950000000     0.854220000000    -0.00500207 
C664     C      0.121930000000     0.648950000000     0.885690000000    -0.00510704 
C665     C      0.121590000000     0.621640000000     0.901770000000    -0.0815693  
C666     C      0.121240000000     0.594360000000     0.885650000000    -0.00536689 
C667     C      0.121790000000     0.592960000000     0.604210000000    -0.00496069 
C668     C      0.121260000000     0.620250000000     0.588110000000    -0.08161    
C669     C      0.120750000000     0.647530000000     0.604230000000    -0.00530405 
C670     C      0.120790000000     0.647540000000     0.635650000000    -0.00540345 
C671     C      0.121330000000     0.620260000000     0.651780000000    -0.0815237  
C672     C      0.121830000000     0.592960000000     0.635690000000    -0.00506236 
C673     C      0.762150000000     0.640620000000     0.723760000000    -0.00338379 
C674     C      0.777850000000     0.620810000000     0.742790000000    -0.0822991  
C675     C      0.761600000000     0.601010000000     0.761340000000    -0.00343641 
C676     C      0.730090000000     0.601450000000     0.761320000000    -0.00362932 
C677     C      0.714390000000     0.620950000000     0.741980000000    -0.0819556  
C678     C      0.730630000000     0.640320000000     0.722980000000    -0.00393173 
C679     C      0.980390000000     0.593400000000     0.744700000000    -0.00494821 
C680     C      0.964230000000     0.620680000000     0.744830000000    -0.0814542  
C681     C      0.980350000000     0.647980000000     0.745070000000    -0.0050412  
C682     C      0.011860000000     0.648000000000     0.745150000000    -0.00495322 
C683     C      0.028030000000     0.620730000000     0.744990000000    -0.0814609  
C684     C      0.011910000000     0.593420000000     0.744780000000    -0.00503553 
C685     C      0.761650000000     0.601250000000     0.476180000000    -0.00340939 
C686     C      0.777840000000     0.620910000000     0.994920000000    -0.086159   
C687     C      0.762100000000     0.640630000000     0.014000000000     0.000325435
C688     C      0.730570000000     0.640360000000     0.014660000000    -0.00134674 
C689     C      0.714390000000     0.621110000000     0.995480000000    -0.0843525  
C690     C      0.730130000000     0.601730000000     0.476070000000    -0.00364631 
C691     C      0.869790000000     0.648730000000     0.853320000000    -0.00520737 
C692     C      0.870150000000     0.621420000000     0.837230000000    -0.0816073  
C693     C      0.870510000000     0.594150000000     0.853360000000    -0.00532735 
C694     C      0.870560000000     0.594160000000     0.884780000000    -0.00524871 
C695     C      0.870260000000     0.621430000000     0.900900000000    -0.0816431  
C696     C      0.869840000000     0.648730000000     0.884800000000    -0.00512105 
C697     C      0.871960000000     0.647330000000     0.603360000000    -0.00518801 
C698     C      0.871410000000     0.620060000000     0.587240000000    -0.0816982  
C699     C      0.870960000000     0.592750000000     0.603330000000    -0.00502928 
C700     C      0.871020000000     0.592750000000     0.634800000000    -0.00498486 
C701     C      0.871520000000     0.620050000000     0.650890000000    -0.0816573  
C702     C      0.872020000000     0.647330000000     0.634780000000    -0.00525822 
C703     C      0.980390000000     0.593400000000     0.994190000000    -0.00513189 
C704     C      0.964230000000     0.620680000000     0.993880000000    -0.0817537  
C705     C      0.980350000000     0.647980000000     0.493820000000    -0.00495668 
C706     C      0.011860000000     0.648010000000     0.494080000000    -0.00503589 
C707     C      0.028030000000     0.620730000000     0.994430000000    -0.0817322  
C708     C      0.011910000000     0.593420000000     0.994460000000    -0.00524817 
C709     C      0.390550000000     0.230860000000     0.764210000000    -0.00348712 
C710     C      0.371010000000     0.214670000000     0.745330000000    -0.0819988  
C711     C      0.351320000000     0.230410000000     0.726230000000    -0.00364875 
C712     C      0.351590000000     0.261920000000     0.725590000000    -0.00332733 
C713     C      0.370770000000     0.278120000000     0.744830000000    -0.0822033  
C714     C      0.390040000000     0.262390000000     0.764350000000    -0.00326798 
C715     C      0.351360000000     0.230760000000     0.977280000000    -0.00279179 
C716     C      0.371180000000     0.214670000000     0.495960000000    -0.0822713  
C717     C      0.390840000000     0.230530000000     0.515000000000    -0.00350117 
C718     C      0.390310000000     0.262040000000     0.515740000000    -0.00360138 
C719     C      0.370870000000     0.278130000000     0.496680000000    -0.0821789  
C720     C      0.351590000000     0.262290000000     0.977250000000    -0.00413562 
C721     C      0.398660000000     0.121810000000     0.854750000000    -0.00513816 
C722     C      0.371340000000     0.121720000000     0.838670000000    -0.0817611  
C723     C      0.344080000000     0.121690000000     0.854800000000    -0.00509202 
C724     C      0.344130000000     0.121720000000     0.886250000000    -0.00519628 
C725     C      0.371440000000     0.121800000000     0.902330000000    -0.0815784  
C726     C      0.398710000000     0.121860000000     0.886200000000    -0.00523745 
C727     C      0.398660000000     0.121660000000     0.604760000000    -0.00504329 
C728     C      0.371350000000     0.121580000000     0.588670000000    -0.0818053  
C729     C      0.344080000000     0.121540000000     0.604800000000    -0.00509902 
C730     C      0.344120000000     0.121570000000     0.636240000000    -0.0052823  
C731     C      0.371430000000     0.121660000000     0.652330000000    -0.0815839  
C732     C      0.398700000000     0.121720000000     0.636210000000    -0.00515791 
C733     C      0.351410000000     0.762240000000     0.725720000000    -0.00358575 
C734     C      0.370970000000     0.778100000000     0.744860000000    -0.0821124  
C735     C      0.390360000000     0.762010000000     0.763980000000    -0.00337261 
C736     C      0.389860000000     0.730480000000     0.764290000000    -0.00328759 
C737     C      0.370730000000     0.714640000000     0.744710000000    -0.0821935  
C738     C      0.351680000000     0.730730000000     0.725260000000    -0.00334084 
C739     C      0.398870000000     0.980610000000     0.744640000000    -0.00502518 
C740     C      0.371570000000     0.964480000000     0.744790000000    -0.0813954  
C741     C      0.344280000000     0.980630000000     0.745170000000    -0.00508087 
C742     C      0.344290000000     0.012140000000     0.745390000000    -0.00497541 
C743     C      0.371580000000     0.028280000000     0.745240000000    -0.0814202  
C744     C      0.398870000000     0.012140000000     0.744860000000    -0.0049857  
C745     C      0.351330000000     0.762230000000     0.513400000000    -0.00353166 
C746     C      0.370870000000     0.778090000000     0.994260000000    -0.0858918  
C747     C      0.390220000000     0.762010000000     0.975080000000    -0.00277351 
C748     C      0.389700000000     0.730480000000     0.974740000000    -0.00356322 
C749     C      0.370600000000     0.714640000000     0.994350000000    -0.0845894  
C750     C      0.351580000000     0.730730000000     0.513830000000    -0.00330805 
C751     C      0.343310000000     0.870990000000     0.885420000000    -0.00498365 
C752     C      0.370610000000     0.871360000000     0.901510000000    -0.0816837  
C753     C      0.397890000000     0.871710000000     0.885400000000    -0.00514514 
C754     C      0.397900000000     0.871670000000     0.853980000000    -0.00529564 
C755     C      0.370620000000     0.871280000000     0.837860000000    -0.0815506  
C756     C      0.343320000000     0.870950000000     0.853940000000    -0.00505561 
C757     C      0.344730000000     0.871310000000     0.603980000000    -0.00534119 
C758     C      0.372000000000     0.870800000000     0.587850000000    -0.0817201  
C759     C      0.399300000000     0.870310000000     0.603940000000    -0.00507201 
C760     C      0.399310000000     0.870350000000     0.635420000000    -0.00512075 
C761     C      0.372020000000     0.870890000000     0.651520000000    -0.081601   
C762     C      0.344740000000     0.871350000000     0.635400000000    -0.00538296 
C763     C      0.344250000000     0.980630000000     0.495200000000    -0.00500506 
C764     C      0.371530000000     0.964480000000     0.495060000000    -0.081424   
C765     C      0.398830000000     0.980610000000     0.995040000000    -0.00525247 
C766     C      0.398840000000     0.012130000000     0.995140000000    -0.00514038 
C767     C      0.371550000000     0.028280000000     0.495270000000    -0.0815402  
C768     C      0.344260000000     0.012140000000     0.495310000000    -0.00497228 
Cu1      Cu     0.343360000000     0.871200000000     0.494980000000     0.8408     
Cu2      Cu     0.399210000000     0.871000000000     0.994360000000     0.836644   
Cu3      Cu     0.343400000000     0.871190000000     0.244390000000     0.841064   
Cu4      Cu     0.399250000000     0.871020000000     0.245010000000     0.839246   
Cu5      Cu     0.343470000000     0.121610000000     0.495380000000     0.840705   
Cu6      Cu     0.399330000000     0.121710000000     0.995630000000     0.836673   
Cu7      Cu     0.343450000000     0.121580000000     0.245380000000     0.840807   
Cu8      Cu     0.399300000000     0.121750000000     0.245620000000     0.839258   
Cu9      Cu     0.870890000000     0.648690000000     0.494390000000     0.840614   
Cu10     Cu     0.870810000000     0.592830000000     0.493780000000     0.839419   
Cu11     Cu     0.870880000000     0.648660000000     0.243740000000     0.840529   
Cu12     Cu     0.870830000000     0.592810000000     0.244350000000     0.839577   
Cu13     Cu     0.121330000000     0.648870000000     0.495240000000     0.840664   
Cu14     Cu     0.121480000000     0.593020000000     0.494630000000     0.839265   
Cu15     Cu     0.121320000000     0.648900000000     0.244650000000     0.840907   
Cu16     Cu     0.121500000000     0.593040000000     0.245260000000     0.839469   
Cu17     Cu     0.593010000000     0.121520000000     0.496190000000     0.839508   
Cu18     Cu     0.648860000000     0.121470000000     0.996800000000     0.837656   
Cu19     Cu     0.593040000000     0.121580000000     0.246790000000     0.839421   
Cu20     Cu     0.648900000000     0.121420000000     0.246180000000     0.841024   
Cu21     Cu     0.593000000000     0.870920000000     0.495560000000     0.839632   
Cu22     Cu     0.648850000000     0.870980000000     0.494940000000     0.840532   
Cu23     Cu     0.592970000000     0.870900000000     0.244950000000     0.839516   
Cu24     Cu     0.648830000000     0.870970000000     0.245570000000     0.840786   
Cu25     Cu     0.370600000000     0.371430000000     0.469750000000     0.84158    
Cu26     Cu     0.371060000000     0.370820000000     0.025490000000     0.840775   
Cu27     Cu     0.370170000000     0.370660000000     0.215630000000     0.837895   
Cu28     Cu     0.371420000000     0.371560000000     0.271380000000     0.842901   
Cu29     Cu     0.370640000000     0.622230000000     0.023770000000     0.841492   
Cu30     Cu     0.371070000000     0.621080000000     0.468000000000     0.841626   
Cu31     Cu     0.371260000000     0.621230000000     0.271450000000     0.841567   
Cu32     Cu     0.370450000000     0.622080000000     0.215690000000     0.839345   
Cu33     Cu     0.621670000000     0.371220000000     0.024350000000     0.842369   
Cu34     Cu     0.621030000000     0.370720000000     0.468610000000     0.840286   
Cu35     Cu     0.621800000000     0.370310000000     0.214910000000     0.837404   
Cu36     Cu     0.620860000000     0.371580000000     0.270660000000     0.843444   
Cu37     Cu     0.621440000000     0.621230000000     0.467740000000     0.840532   
Cu38     Cu     0.621330000000     0.621740000000     0.023490000000     0.842122   
Cu39     Cu     0.621210000000     0.621960000000     0.214220000000     0.837775   
Cu40     Cu     0.621560000000     0.620980000000     0.269960000000     0.842407   
Cu41     Cu     0.121340000000     0.343800000000     0.997380000000     0.837593   
Cu42     Cu     0.121370000000     0.399650000000     0.496770000000     0.839649   
Cu43     Cu     0.121440000000     0.399630000000     0.247360000000     0.839033   
Cu44     Cu     0.121270000000     0.343780000000     0.246750000000     0.840946   
Cu45     Cu     0.870850000000     0.343710000000     0.995460000000     0.837762   
Cu46     Cu     0.870770000000     0.399560000000     0.995710000000     0.836938   
Cu47     Cu     0.870880000000     0.343720000000     0.245470000000     0.840888   
Cu48     Cu     0.870700000000     0.399580000000     0.245720000000     0.839307   
Cu49     Cu     0.343360000000     0.871200000000     0.994980000000     0.83805    
Cu50     Cu     0.399210000000     0.871000000000     0.494360000000     0.839232   
Cu51     Cu     0.343400000000     0.871190000000     0.744390000000     0.840967   
Cu52     Cu     0.399250000000     0.871020000000     0.745010000000     0.839116   
Cu53     Cu     0.343470000000     0.121610000000     0.995380000000     0.83803    
Cu54     Cu     0.399330000000     0.121710000000     0.495630000000     0.839319   
Cu55     Cu     0.343450000000     0.121580000000     0.745380000000     0.840691   
Cu56     Cu     0.399300000000     0.121750000000     0.745620000000     0.839261   
Cu57     Cu     0.870890000000     0.648690000000     0.994390000000     0.837884   
Cu58     Cu     0.870810000000     0.592830000000     0.993780000000     0.836835   
Cu59     Cu     0.870880000000     0.648660000000     0.743740000000     0.840406   
Cu60     Cu     0.870830000000     0.592810000000     0.744350000000     0.839579   
Cu61     Cu     0.121330000000     0.648870000000     0.995240000000     0.837903   
Cu62     Cu     0.121480000000     0.593020000000     0.994630000000     0.836709   
Cu63     Cu     0.121320000000     0.648900000000     0.744650000000     0.840791   
Cu64     Cu     0.121500000000     0.593040000000     0.745260000000     0.839469   
Cu65     Cu     0.593010000000     0.121520000000     0.996190000000     0.836911   
Cu66     Cu     0.648860000000     0.121470000000     0.496800000000     0.84039    
Cu67     Cu     0.593040000000     0.121580000000     0.746790000000     0.839443   
Cu68     Cu     0.648900000000     0.121420000000     0.746180000000     0.840782   
Cu69     Cu     0.593000000000     0.870920000000     0.995550000000     0.836986   
Cu70     Cu     0.648850000000     0.870980000000     0.994940000000     0.837868   
Cu71     Cu     0.592970000000     0.870900000000     0.744950000000     0.839665   
Cu72     Cu     0.648830000000     0.870970000000     0.745570000000     0.840513   
Cu73     Cu     0.370600000000     0.371430000000     0.969750000000     0.838276   
Cu74     Cu     0.371060000000     0.370820000000     0.525490000000     0.838652   
Cu75     Cu     0.370170000000     0.370660000000     0.715630000000     0.837913   
Cu76     Cu     0.371420000000     0.371560000000     0.771390000000     0.84298    
Cu77     Cu     0.370640000000     0.622230000000     0.523770000000     0.839499   
Cu78     Cu     0.371070000000     0.621080000000     0.968010000000     0.838279   
Cu79     Cu     0.371260000000     0.621230000000     0.771450000000     0.841621   
Cu80     Cu     0.370450000000     0.622080000000     0.715690000000     0.839275   
Cu81     Cu     0.621670000000     0.371220000000     0.524350000000     0.840112   
Cu82     Cu     0.621030000000     0.370720000000     0.968600000000     0.837065   
Cu83     Cu     0.621800000000     0.370310000000     0.714910000000     0.837335   
Cu84     Cu     0.620860000000     0.371580000000     0.770660000000     0.843542   
Cu85     Cu     0.621440000000     0.621230000000     0.967740000000     0.837281   
Cu86     Cu     0.621330000000     0.621740000000     0.523490000000     0.840003   
Cu87     Cu     0.621210000000     0.621960000000     0.714220000000     0.837707   
Cu88     Cu     0.621560000000     0.620980000000     0.769960000000     0.842459   
Cu89     Cu     0.121340000000     0.343800000000     0.497380000000     0.840206   
Cu90     Cu     0.121370000000     0.399650000000     0.996770000000     0.837057   
Cu91     Cu     0.121440000000     0.399630000000     0.747360000000     0.839026   
Cu92     Cu     0.121270000000     0.343780000000     0.746750000000     0.840826   
Cu93     Cu     0.870850000000     0.343710000000     0.495460000000     0.840428   
Cu94     Cu     0.870770000000     0.399560000000     0.495710000000     0.839582   
Cu95     Cu     0.870880000000     0.343720000000     0.745470000000     0.840901   
Cu96     Cu     0.870700000000     0.399580000000     0.745720000000     0.839291   
H1       H      0.870820000000     0.322930000000     0.398000000000     0.0447497  
H2       H      0.870590000000     0.420420000000     0.397930000000     0.0446243  
H3       H      0.870450000000     0.420360000000     0.343180000000     0.0445185  
H4       H      0.870670000000     0.322870000000     0.343250000000     0.0448247  
H5       H      0.870950000000     0.322870000000     0.093260000000     0.0452128  
H6       H      0.870720000000     0.420350000000     0.093170000000     0.0452291  
H7       H      0.870840000000     0.420420000000     0.147920000000     0.0449714  
H8       H      0.871080000000     0.322940000000     0.148010000000     0.0447464  
H9       H      0.023510000000     0.420650000000     0.246410000000     0.0447098  
H10      H      0.023500000000     0.323170000000     0.247380000000     0.0448537  
H11      H      0.968660000000     0.323160000000     0.246810000000     0.044849   
H12      H      0.968610000000     0.420630000000     0.245830000000     0.0447041  
H13      H      0.121160000000     0.419780000000     0.399390000000     0.044437   
H14      H      0.122430000000     0.322300000000     0.399490000000     0.0448737  
H15      H      0.122330000000     0.322290000000     0.344650000000     0.0448688  
H16      H      0.121060000000     0.419770000000     0.344730000000     0.0444437  
H17      H      0.121960000000     0.421150000000     0.149490000000     0.0451086  
H18      H      0.120160000000     0.323680000000     0.149390000000     0.0447453  
H19      H      0.120070000000     0.323680000000     0.094730000000     0.0450488  
H20      H      0.121860000000     0.421150000000     0.094660000000     0.0454815  
H21      H      0.023510000000     0.420510000000     0.496180000000     0.044685   
H22      H      0.023530000000     0.323020000000     0.996460000000     0.0443446  
H23      H      0.968670000000     0.323010000000     0.996030000000     0.0443669  
H24      H      0.968630000000     0.420490000000     0.495740000000     0.044675   
H25      H      0.774250000000     0.336430000000     0.211020000000     0.0416337  
H26      H      0.773190000000     0.406110000000     0.278820000000     0.0416976  
H27      H      0.717840000000     0.405380000000     0.278690000000     0.0416532  
H28      H      0.718920000000     0.336750000000     0.209840000000     0.0409348  
H29      H      0.620240000000     0.468990000000     0.289830000000     0.0447082  
H30      H      0.622310000000     0.468560000000     0.192580000000     0.0448609  
H31      H      0.622290000000     0.523580000000     0.192430000000     0.0449599  
H32      H      0.620200000000     0.523700000000     0.289680000000     0.0447017  
H33      H      0.718410000000     0.336690000000     0.461500000000     0.0420784  
H34      H      0.718400000000     0.405860000000     0.029820000000     0.042145   
H35      H      0.773710000000     0.406570000000     0.029130000000     0.0420027  
H36      H      0.773760000000     0.336370000000     0.461860000000     0.041819   
H37      H      0.621560000000     0.468890000000     0.044730000000     0.0446469  
H38      H      0.621120000000     0.468690000000     0.447460000000     0.044655   
H39      H      0.621100000000     0.523560000000     0.447380000000     0.0445887  
H40      H      0.621560000000     0.523760000000     0.044650000000     0.0447186  
H41      H      0.468950000000     0.621810000000     0.291310000000     0.0446882  
H42      H      0.468430000000     0.621660000000     0.194030000000     0.0448618  
H43      H      0.523330000000     0.621620000000     0.193780000000     0.0447873  
H44      H      0.523790000000     0.621780000000     0.291050000000     0.0448763  
H45      H      0.468570000000     0.621920000000     0.447400000000     0.0446935  
H46      H      0.468810000000     0.621630000000     0.044670000000     0.0446035  
H47      H      0.523700000000     0.621540000000     0.044500000000     0.0444713  
H48      H      0.523420000000     0.621840000000     0.447230000000     0.0448278  
H49      H      0.273100000000     0.337100000000     0.210850000000     0.0409339  
H50      H      0.274410000000     0.405260000000     0.280160000000     0.0414712  
H51      H      0.219050000000     0.405950000000     0.280510000000     0.0415233  
H52      H      0.217790000000     0.336740000000     0.212230000000     0.0416229  
H53      H      0.468410000000     0.370150000000     0.193330000000     0.0448758  
H54      H      0.468850000000     0.371790000000     0.290590000000     0.0446691  
H55      H      0.523560000000     0.371710000000     0.290430000000     0.0446806  
H56      H      0.523420000000     0.370070000000     0.193170000000     0.0449857  
H57      H      0.370030000000     0.468920000000     0.193890000000     0.0450742  
H58      H      0.371640000000     0.468980000000     0.291150000000     0.0445647  
H59      H      0.371660000000     0.523730000000     0.291190000000     0.0445533  
H60      H      0.370060000000     0.523900000000     0.193930000000     0.0450976  
H61      H      0.218660000000     0.406710000000     0.464110000000     0.0416719  
H62      H      0.218210000000     0.336640000000     0.031510000000     0.0417045  
H63      H      0.273560000000     0.337010000000     0.032250000000     0.0419804  
H64      H      0.273970000000     0.406060000000     0.463810000000     0.0417281  
H65      H      0.468500000000     0.370950000000     0.448600000000     0.0446695  
H66      H      0.468810000000     0.370900000000     0.045880000000     0.0446453  
H67      H      0.523690000000     0.370860000000     0.045720000000     0.0447182  
H68      H      0.523360000000     0.370930000000     0.448450000000     0.044598   
H69      H      0.370190000000     0.469290000000     0.046600000000     0.044791   
H70      H      0.371730000000     0.468640000000     0.449340000000     0.044575   
H71      H      0.371720000000     0.523390000000     0.448900000000     0.044529   
H72      H      0.370190000000     0.524270000000     0.046160000000     0.0448263  
H73      H      0.656010000000     0.773500000000     0.278340000000     0.041693   
H74      H      0.586180000000     0.774220000000     0.210690000000     0.0418857  
H75      H      0.586920000000     0.718910000000     0.209350000000     0.0419764  
H76      H      0.655730000000     0.718150000000     0.278030000000     0.0419746  
H77      H      0.586190000000     0.773790000000     0.028910000000     0.0418431  
H78      H      0.655920000000     0.773960000000     0.461150000000     0.0416436  
H79      H      0.655560000000     0.718610000000     0.460660000000     0.0419241  
H80      H      0.586870000000     0.718470000000     0.029460000000     0.0419901  
H81      H      0.571480000000     0.870080000000     0.397680000000     0.0447475  
H82      H      0.668950000000     0.871700000000     0.397580000000     0.044657   
H83      H      0.668950000000     0.871550000000     0.342910000000     0.0446149  
H84      H      0.571470000000     0.869930000000     0.342840000000     0.0447031  
H85      H      0.572870000000     0.871670000000     0.092910000000     0.0451445  
H86      H      0.670340000000     0.870230000000     0.092850000000     0.0453112  
H87      H      0.670330000000     0.870370000000     0.147680000000     0.0449427  
H88      H      0.572860000000     0.871810000000     0.147580000000     0.0447467  
H89      H      0.586670000000     0.219200000000     0.279890000000     0.0415993  
H90      H      0.655890000000     0.217940000000     0.211630000000     0.0416097  
H91      H      0.655480000000     0.273250000000     0.210190000000     0.0409151  
H92      H      0.587310000000     0.274560000000     0.279490000000     0.0415427  
H93      H      0.572050000000     0.023670000000     0.246370000000     0.0447143  
H94      H      0.669530000000     0.023640000000     0.246400000000     0.0448072  
H95      H      0.669520000000     0.968780000000     0.245920000000     0.0448187  
H96      H      0.572040000000     0.968780000000     0.245900000000     0.0447065  
H97      H      0.656040000000     0.218470000000     0.030680000000     0.0417017  
H98      H      0.586000000000     0.218680000000     0.463260000000     0.041817   
H99      H      0.586630000000     0.273990000000     0.462780000000     0.0418719  
H100     H      0.655660000000     0.273820000000     0.031240000000     0.0419548  
H101     H      0.670370000000     0.122500000000     0.398920000000     0.0448619  
H102     H      0.572900000000     0.121210000000     0.398810000000     0.0445821  
H103     H      0.572910000000     0.121160000000     0.344150000000     0.0445437  
H104     H      0.670380000000     0.122440000000     0.344080000000     0.044898   
H105     H      0.571510000000     0.122080000000     0.094080000000     0.0453168  
H106     H      0.668980000000     0.120310000000     0.094150000000     0.0450625  
H107     H      0.668990000000     0.120360000000     0.148810000000     0.0447169  
H108     H      0.571520000000     0.122140000000     0.148920000000     0.0449897  
H109     H      0.572110000000     0.023670000000     0.495920000000     0.0446917  
H110     H      0.669600000000     0.023650000000     0.995920000000     0.0443384  
H111     H      0.669590000000     0.968790000000     0.995560000000     0.04435    
H112     H      0.572110000000     0.968790000000     0.495560000000     0.044665   
H113     H      0.218190000000     0.655980000000     0.210750000000     0.0415097  
H114     H      0.218750000000     0.586750000000     0.279010000000     0.0415559  
H115     H      0.274110000000     0.587510000000     0.279300000000     0.0415416  
H116     H      0.273510000000     0.655680000000     0.210000000000     0.0408141  
H117     H      0.218230000000     0.655940000000     0.029250000000     0.0414761  
H118     H      0.218700000000     0.586580000000     0.461130000000     0.0416079  
H119     H      0.274040000000     0.587320000000     0.460770000000     0.0415507  
H120     H      0.273570000000     0.655630000000     0.029940000000     0.0407532  
H121     H      0.120930000000     0.572910000000     0.342610000000     0.0444532  
H122     H      0.122150000000     0.670390000000     0.342540000000     0.0449567  
H123     H      0.122200000000     0.670380000000     0.397370000000     0.0449749  
H124     H      0.120980000000     0.572900000000     0.397270000000     0.0444738  
H125     H      0.122190000000     0.571520000000     0.092540000000     0.0454416  
H126     H      0.120330000000     0.668990000000     0.092610000000     0.0449975  
H127     H      0.120400000000     0.669000000000     0.147270000000     0.0446911  
H128     H      0.122260000000     0.571530000000     0.147370000000     0.0451134  
H129     H      0.774270000000     0.655990000000     0.209180000000     0.0418373  
H130     H      0.773280000000     0.585610000000     0.276260000000     0.0416899  
H131     H      0.717980000000     0.586260000000     0.276100000000     0.0418436  
H132     H      0.718930000000     0.655620000000     0.207980000000     0.0420481  
H133     H      0.968730000000     0.571940000000     0.244510000000     0.0447227  
H134     H      0.968660000000     0.669420000000     0.245180000000     0.0448353  
H135     H      0.023510000000     0.669470000000     0.245330000000     0.0448202  
H136     H      0.023610000000     0.571990000000     0.244650000000     0.0447383  
H137     H      0.773370000000     0.585930000000     0.961220000000     0.0413537  
H138     H      0.774180000000     0.655890000000     0.528730000000     0.0417219  
H139     H      0.718840000000     0.655570000000     0.529720000000     0.0420019  
H140     H      0.718060000000     0.586630000000     0.961170000000     0.0417301  
H141     H      0.869510000000     0.670160000000     0.341640000000     0.044813   
H142     H      0.870790000000     0.572680000000     0.341740000000     0.0445134  
H143     H      0.870870000000     0.572690000000     0.396410000000     0.044537   
H144     H      0.869600000000     0.670170000000     0.396480000000     0.0447692  
H145     H      0.872330000000     0.668800000000     0.091740000000     0.0451017  
H146     H      0.870530000000     0.571330000000     0.091650000000     0.0453342  
H147     H      0.870620000000     0.571320000000     0.146470000000     0.0450115  
H148     H      0.872420000000     0.668790000000     0.146410000000     0.0447962  
H149     H      0.968720000000     0.571940000000     0.494260000000     0.0446561  
H150     H      0.968670000000     0.669430000000     0.993590000000     0.0443537  
H151     H      0.023520000000     0.669470000000     0.994030000000     0.0443823  
H152     H      0.023600000000     0.571990000000     0.494710000000     0.0446981  
H153     H      0.405830000000     0.219120000000     0.279200000000     0.0417053  
H154     H      0.336150000000     0.218330000000     0.211410000000     0.0416887  
H155     H      0.336460000000     0.273650000000     0.210440000000     0.040889   
H156     H      0.405100000000     0.274480000000     0.279280000000     0.0416374  
H157     H      0.336080000000     0.218950000000     0.462360000000     0.0418233  
H158     H      0.406220000000     0.218530000000     0.029680000000     0.0419849  
H159     H      0.405460000000     0.273850000000     0.030810000000     0.0421033  
H160     H      0.336340000000     0.274290000000     0.462440000000     0.0420924  
H161     H      0.420100000000     0.121840000000     0.343080000000     0.0445171  
H162     H      0.322620000000     0.121620000000     0.343180000000     0.0448387  
H163     H      0.322690000000     0.121690000000     0.397920000000     0.0447421  
H164     H      0.420170000000     0.121920000000     0.397830000000     0.0446363  
H165     H      0.420110000000     0.121700000000     0.093100000000     0.0451853  
H166     H      0.322620000000     0.121480000000     0.093160000000     0.0451839  
H167     H      0.322680000000     0.121540000000     0.147910000000     0.0447651  
H168     H      0.420160000000     0.121780000000     0.147850000000     0.044979   
H169     H      0.336340000000     0.774240000000     0.210720000000     0.0414714  
H170     H      0.405540000000     0.773830000000     0.279010000000     0.0417902  
H171     H      0.404830000000     0.718470000000     0.279380000000     0.0417171  
H172     H      0.336680000000     0.718920000000     0.210050000000     0.0407427  
H173     H      0.420310000000     0.968930000000     0.244360000000     0.0447205  
H174     H      0.322830000000     0.968970000000     0.245300000000     0.0448749  
H175     H      0.322840000000     0.023810000000     0.245670000000     0.0448514  
H176     H      0.420320000000     0.023820000000     0.244730000000     0.0447025  
H177     H      0.336290000000     0.774220000000     0.028440000000     0.0414207  
H178     H      0.405380000000     0.773840000000     0.460050000000     0.0417574  
H179     H      0.404640000000     0.718470000000     0.459630000000     0.0416483  
H180     H      0.336610000000     0.718910000000     0.029070000000     0.0407146  
H181     H      0.321870000000     0.870710000000     0.397090000000     0.0449505  
H182     H      0.419350000000     0.872000000000     0.397030000000     0.0446581  
H183     H      0.419360000000     0.871930000000     0.342370000000     0.0447104  
H184     H      0.321890000000     0.870640000000     0.342260000000     0.0449991  
H185     H      0.323270000000     0.871690000000     0.092360000000     0.0449792  
H186     H      0.420730000000     0.869900000000     0.092260000000     0.0451878  
H187     H      0.420750000000     0.869970000000     0.147090000000     0.0448317  
H188     H      0.323280000000     0.871760000000     0.147030000000     0.0446637  
H189     H      0.322790000000     0.968970000000     0.995220000000     0.0443889  
H190     H      0.420270000000     0.968920000000     0.494930000000     0.0446677  
H191     H      0.420290000000     0.023810000000     0.495110000000     0.0446504  
H192     H      0.322810000000     0.023820000000     0.995410000000     0.0443612  
H193     H      0.870820000000     0.322930000000     0.897990000000     0.0446403  
H194     H      0.870590000000     0.420420000000     0.897930000000     0.044566   
H195     H      0.870450000000     0.420360000000     0.843180000000     0.0445182  
H196     H      0.870670000000     0.322870000000     0.843250000000     0.0447615  
H197     H      0.870950000000     0.322870000000     0.593260000000     0.0447101  
H198     H      0.870720000000     0.420350000000     0.593170000000     0.0447696  
H199     H      0.870840000000     0.420420000000     0.647920000000     0.0448634  
H200     H      0.871080000000     0.322940000000     0.648010000000     0.0445834  
H201     H      0.023510000000     0.420650000000     0.746400000000     0.0446702  
H202     H      0.023500000000     0.323170000000     0.747380000000     0.0447584  
H203     H      0.968660000000     0.323160000000     0.746810000000     0.0447529  
H204     H      0.968610000000     0.420630000000     0.745830000000     0.044664   
H205     H      0.121160000000     0.419780000000     0.899390000000     0.0444114  
H206     H      0.122430000000     0.322300000000     0.899490000000     0.0447555  
H207     H      0.122330000000     0.322290000000     0.844660000000     0.0447905  
H208     H      0.121060000000     0.419770000000     0.844730000000     0.0444304  
H209     H      0.121960000000     0.421150000000     0.649490000000     0.0449942  
H210     H      0.120160000000     0.323680000000     0.649390000000     0.0445926  
H211     H      0.120070000000     0.323680000000     0.594730000000     0.0445631  
H212     H      0.121860000000     0.421150000000     0.594650000000     0.0449951  
H213     H      0.023510000000     0.420510000000     0.996180000000     0.04436    
H214     H      0.023530000000     0.323020000000     0.496460000000     0.0447278  
H215     H      0.968670000000     0.323010000000     0.496030000000     0.0447459  
H216     H      0.968630000000     0.420490000000     0.995740000000     0.0443479  
H217     H      0.774250000000     0.336430000000     0.711020000000     0.041545   
H218     H      0.773190000000     0.406110000000     0.778820000000     0.0416876  
H219     H      0.717840000000     0.405380000000     0.778690000000     0.0416505  
H220     H      0.718920000000     0.336750000000     0.709850000000     0.0408806  
H221     H      0.620240000000     0.468990000000     0.789830000000     0.0447092  
H222     H      0.622310000000     0.468560000000     0.692580000000     0.0448097  
H223     H      0.622290000000     0.523580000000     0.692430000000     0.0449067  
H224     H      0.620200000000     0.523700000000     0.789680000000     0.0447052  
H225     H      0.718410000000     0.336690000000     0.961500000000     0.0419152  
H226     H      0.718400000000     0.405860000000     0.529820000000     0.0420524  
H227     H      0.773710000000     0.406570000000     0.529130000000     0.0419634  
H228     H      0.773760000000     0.336370000000     0.961860000000     0.0414369  
H229     H      0.621560000000     0.468890000000     0.544730000000     0.0448977  
H230     H      0.621120000000     0.468690000000     0.947460000000     0.0445222  
H231     H      0.621100000000     0.523560000000     0.947380000000     0.0444974  
H232     H      0.621560000000     0.523760000000     0.544650000000     0.0449294  
H233     H      0.468950000000     0.621810000000     0.791300000000     0.0447152  
H234     H      0.468430000000     0.621660000000     0.694030000000     0.0448129  
H235     H      0.523330000000     0.621620000000     0.693780000000     0.0447361  
H236     H      0.523790000000     0.621780000000     0.791050000000     0.0448739  
H237     H      0.468570000000     0.621920000000     0.947400000000     0.0446141  
H238     H      0.468810000000     0.621630000000     0.544670000000     0.0448202  
H239     H      0.523700000000     0.621540000000     0.544500000000     0.0447223  
H240     H      0.523420000000     0.621840000000     0.947230000000     0.0447019  
H241     H      0.273100000000     0.337100000000     0.710850000000     0.0408634  
H242     H      0.274410000000     0.405260000000     0.780160000000     0.0414687  
H243     H      0.219050000000     0.405950000000     0.780510000000     0.0415301  
H244     H      0.217790000000     0.336740000000     0.712230000000     0.041535   
H245     H      0.468410000000     0.370150000000     0.693330000000     0.0448477  
H246     H      0.468850000000     0.371790000000     0.790590000000     0.0446876  
H247     H      0.523560000000     0.371710000000     0.790430000000     0.0446571  
H248     H      0.523420000000     0.370070000000     0.693170000000     0.0449113  
H249     H      0.370030000000     0.468920000000     0.693900000000     0.0450356  
H250     H      0.371640000000     0.468980000000     0.791150000000     0.0445688  
H251     H      0.371660000000     0.523730000000     0.791190000000     0.0445585  
H252     H      0.370060000000     0.523900000000     0.693930000000     0.0450333  
H253     H      0.218660000000     0.406710000000     0.964110000000     0.0413033  
H254     H      0.218210000000     0.336640000000     0.531510000000     0.0416537  
H255     H      0.273560000000     0.337010000000     0.532250000000     0.0418392  
H256     H      0.273970000000     0.406060000000     0.963810000000     0.0416323  
H257     H      0.468500000000     0.370950000000     0.948600000000     0.04456    
H258     H      0.468810000000     0.370900000000     0.545880000000     0.0448787  
H259     H      0.523690000000     0.370860000000     0.545720000000     0.0449377  
H260     H      0.523360000000     0.370930000000     0.948450000000     0.0444927  
H261     H      0.370190000000     0.469290000000     0.546600000000     0.0449978  
H262     H      0.371730000000     0.468640000000     0.949340000000     0.0444851  
H263     H      0.371720000000     0.523390000000     0.948900000000     0.044435   
H264     H      0.370190000000     0.524270000000     0.546160000000     0.0450214  
H265     H      0.656010000000     0.773500000000     0.778340000000     0.041665   
H266     H      0.586180000000     0.774220000000     0.710690000000     0.0418268  
H267     H      0.586920000000     0.718910000000     0.709350000000     0.0419333  
H268     H      0.655730000000     0.718150000000     0.778030000000     0.041954   
H269     H      0.586190000000     0.773790000000     0.528910000000     0.0418052  
H270     H      0.655920000000     0.773960000000     0.961150000000     0.0412606  
H271     H      0.655560000000     0.718610000000     0.960660000000     0.0417655  
H272     H      0.586870000000     0.718470000000     0.529460000000     0.0418971  
H273     H      0.571480000000     0.870080000000     0.897680000000     0.0446991  
H274     H      0.668950000000     0.871700000000     0.897580000000     0.0445621  
H275     H      0.668950000000     0.871550000000     0.842910000000     0.0445666  
H276     H      0.571470000000     0.869930000000     0.842850000000     0.0446971  
H277     H      0.572870000000     0.871670000000     0.592910000000     0.044681   
H278     H      0.670340000000     0.870230000000     0.592850000000     0.0448066  
H279     H      0.670330000000     0.870370000000     0.647680000000     0.0447876  
H280     H      0.572860000000     0.871810000000     0.647580000000     0.0446401  
H281     H      0.586670000000     0.219200000000     0.779890000000     0.0415935  
H282     H      0.655890000000     0.217940000000     0.711630000000     0.0415207  
H283     H      0.655480000000     0.273250000000     0.710190000000     0.0408489  
H284     H      0.587310000000     0.274560000000     0.779490000000     0.0415394  
H285     H      0.572050000000     0.023670000000     0.746370000000     0.0446756  
H286     H      0.669530000000     0.023640000000     0.746400000000     0.0447119  
H287     H      0.669520000000     0.968780000000     0.745920000000     0.0447223  
H288     H      0.572040000000     0.968780000000     0.745900000000     0.0446666  
H289     H      0.656040000000     0.218470000000     0.530680000000     0.041657   
H290     H      0.586000000000     0.218680000000     0.963250000000     0.0414372  
H291     H      0.586630000000     0.273990000000     0.962780000000     0.0417484  
H292     H      0.655660000000     0.273820000000     0.531240000000     0.0418199  
H293     H      0.670370000000     0.122500000000     0.898920000000     0.0447514  
H294     H      0.572900000000     0.121210000000     0.898810000000     0.0445437  
H295     H      0.572910000000     0.121160000000     0.844150000000     0.0445344  
H296     H      0.670380000000     0.122440000000     0.844080000000     0.0448351  
H297     H      0.571510000000     0.122080000000     0.594090000000     0.0448423  
H298     H      0.668980000000     0.120310000000     0.594150000000     0.0445791  
H299     H      0.668990000000     0.120360000000     0.648810000000     0.0445646  
H300     H      0.571520000000     0.122140000000     0.648910000000     0.0448791  
H301     H      0.572110000000     0.023670000000     0.995920000000     0.0443632  
H302     H      0.669600000000     0.023650000000     0.495920000000     0.0447203  
H303     H      0.669590000000     0.968790000000     0.495560000000     0.044729   
H304     H      0.572110000000     0.968790000000     0.995560000000     0.0443371  
H305     H      0.218190000000     0.655980000000     0.710750000000     0.0414316  
H306     H      0.218750000000     0.586750000000     0.779010000000     0.0415509  
H307     H      0.274110000000     0.587510000000     0.779300000000     0.0415413  
H308     H      0.273510000000     0.655680000000     0.710000000000     0.0407554  
H309     H      0.218230000000     0.655940000000     0.529250000000     0.0414364  
H310     H      0.218700000000     0.586580000000     0.961130000000     0.0412722  
H311     H      0.274040000000     0.587320000000     0.960770000000     0.0414505  
H312     H      0.273570000000     0.655630000000     0.529940000000     0.0407158  
H313     H      0.120930000000     0.572910000000     0.842610000000     0.0444494  
H314     H      0.122150000000     0.670390000000     0.842540000000     0.0448821  
H315     H      0.122200000000     0.670380000000     0.897370000000     0.044858   
H316     H      0.120980000000     0.572900000000     0.897270000000     0.044446   
H317     H      0.122190000000     0.571520000000     0.592540000000     0.0449523  
H318     H      0.120330000000     0.668990000000     0.592610000000     0.0445232  
H319     H      0.120400000000     0.669000000000     0.647270000000     0.0445433  
H320     H      0.122260000000     0.571530000000     0.647370000000     0.0449951  
H321     H      0.774270000000     0.655990000000     0.709180000000     0.0417615  
H322     H      0.773280000000     0.585610000000     0.776250000000     0.0416988  
H323     H      0.717980000000     0.586260000000     0.776100000000     0.041837   
H324     H      0.718930000000     0.655620000000     0.707980000000     0.0419762  
H325     H      0.968730000000     0.571940000000     0.744510000000     0.0446824  
H326     H      0.968660000000     0.669420000000     0.745180000000     0.0447399  
H327     H      0.023510000000     0.669470000000     0.745320000000     0.0447251  
H328     H      0.023610000000     0.571990000000     0.744650000000     0.0446978  
H329     H      0.773370000000     0.585930000000     0.461220000000     0.0417202  
H330     H      0.774180000000     0.655890000000     0.028730000000     0.0417734  
H331     H      0.718840000000     0.655570000000     0.029720000000     0.0421384  
H332     H      0.718060000000     0.586630000000     0.461170000000     0.041853   
H333     H      0.869510000000     0.670160000000     0.841640000000     0.0447476  
H334     H      0.870790000000     0.572680000000     0.841740000000     0.0445071  
H335     H      0.870870000000     0.572690000000     0.896410000000     0.044499   
H336     H      0.869600000000     0.670170000000     0.896480000000     0.044657   
H337     H      0.872330000000     0.668800000000     0.591740000000     0.0446161  
H338     H      0.870530000000     0.571330000000     0.591650000000     0.0448569  
H339     H      0.870620000000     0.571320000000     0.646480000000     0.0448974  
H340     H      0.872420000000     0.668790000000     0.646410000000     0.0446418  
H341     H      0.968720000000     0.571940000000     0.994260000000     0.0443317  
H342     H      0.968670000000     0.669430000000     0.493590000000     0.0447314  
H343     H      0.023520000000     0.669470000000     0.494030000000     0.0447628  
H344     H      0.023600000000     0.571990000000     0.994710000000     0.0443748  
H345     H      0.405830000000     0.219120000000     0.779200000000     0.0416974  
H346     H      0.336150000000     0.218330000000     0.711410000000     0.0415917  
H347     H      0.336460000000     0.273650000000     0.710440000000     0.0408412  
H348     H      0.405100000000     0.274480000000     0.779280000000     0.041635   
H349     H      0.336080000000     0.218950000000     0.962350000000     0.0414249  
H350     H      0.406220000000     0.218530000000     0.529680000000     0.0419463  
H351     H      0.405460000000     0.273850000000     0.530810000000     0.0420068  
H352     H      0.336340000000     0.274290000000     0.962440000000     0.0419364  
H353     H      0.420100000000     0.121840000000     0.843080000000     0.0445098  
H354     H      0.322620000000     0.121620000000     0.843170000000     0.0447794  
H355     H      0.322690000000     0.121690000000     0.897930000000     0.0446446  
H356     H      0.420170000000     0.121920000000     0.897830000000     0.0445896  
H357     H      0.420110000000     0.121700000000     0.593100000000     0.0447121  
H358     H      0.322620000000     0.121480000000     0.593160000000     0.04467    
H359     H      0.322680000000     0.121540000000     0.647910000000     0.0446138  
H360     H      0.420160000000     0.121780000000     0.647850000000     0.044877   
H361     H      0.336340000000     0.774240000000     0.710720000000     0.0413955  
H362     H      0.405540000000     0.773830000000     0.779010000000     0.0417832  
H363     H      0.404830000000     0.718470000000     0.779380000000     0.0417149  
H364     H      0.336680000000     0.718920000000     0.710050000000     0.0406853  
H365     H      0.420310000000     0.968930000000     0.744360000000     0.0446798  
H366     H      0.322830000000     0.968970000000     0.745300000000     0.0447792  
H367     H      0.322840000000     0.023810000000     0.745670000000     0.0447553  
H368     H      0.420320000000     0.023820000000     0.744730000000     0.0446616  
H369     H      0.336290000000     0.774220000000     0.528450000000     0.0413846  
H370     H      0.405380000000     0.773840000000     0.960050000000     0.0414216  
H371     H      0.404640000000     0.718470000000     0.959630000000     0.0415225  
H372     H      0.336610000000     0.718910000000     0.529070000000     0.0406731  
H373     H      0.321870000000     0.870710000000     0.897090000000     0.0448364  
H374     H      0.419350000000     0.872000000000     0.897030000000     0.0446239  
H375     H      0.419360000000     0.871930000000     0.842360000000     0.0447056  
H376     H      0.321890000000     0.870640000000     0.842260000000     0.0449236  
H377     H      0.323270000000     0.871690000000     0.592360000000     0.0445029  
H378     H      0.420730000000     0.869900000000     0.592260000000     0.0447119  
H379     H      0.420750000000     0.869970000000     0.647090000000     0.0447213  
H380     H      0.323280000000     0.871760000000     0.647030000000     0.0445153  
H381     H      0.322790000000     0.968970000000     0.495220000000     0.0447736  
H382     H      0.420270000000     0.968920000000     0.994940000000     0.0443425  
H383     H      0.420290000000     0.023810000000     0.995110000000     0.0443241  
H384     H      0.322810000000     0.023820000000     0.495410000000     0.0447416  
O1       O      0.345910000000     0.825490000000     0.495440000000    -0.382419   
O2       O      0.346260000000     0.916890000000     0.494720000000    -0.383362   
O3       O      0.345680000000     0.870940000000     0.449270000000    -0.382419   
O4       O      0.346550000000     0.871430000000     0.040510000000    -0.381679   
O5       O      0.396900000000     0.870380000000     0.040070000000    -0.380109   
O6       O      0.396040000000     0.871640000000     0.448850000000    -0.384036   
O7       O      0.396630000000     0.916740000000     0.995020000000    -0.383103   
O8       O      0.396320000000     0.825290000000     0.993450000000    -0.382521   
O9       O      0.345960000000     0.825480000000     0.243800000000    -0.382467   
O10      O      0.346290000000     0.916880000000     0.244810000000    -0.383296   
O11      O      0.346580000000     0.871540000000     0.198870000000    -0.383986   
O12      O      0.345710000000     0.870820000000     0.290090000000    -0.38236    
O13      O      0.396080000000     0.871550000000     0.290520000000    -0.383868   
O14      O      0.396940000000     0.870490000000     0.199300000000    -0.382316   
O15      O      0.396660000000     0.916750000000     0.244480000000    -0.382971   
O16      O      0.396370000000     0.825300000000     0.245790000000    -0.382025   
O17      O      0.346320000000     0.075910000000     0.995700000000    -0.383586   
O18      O      0.346080000000     0.167330000000     0.994820000000    -0.382867   
O19      O      0.346250000000     0.121300000000     0.449830000000    -0.383816   
O20      O      0.346190000000     0.121940000000     0.041060000000    -0.380349   
O21      O      0.396550000000     0.121200000000     0.041180000000    -0.381394   
O22      O      0.396610000000     0.122230000000     0.449950000000    -0.382743   
O23      O      0.396510000000     0.167430000000     0.996440000000    -0.383005   
O24      O      0.396680000000     0.075980000000     0.995100000000    -0.383306   
O25      O      0.346330000000     0.075880000000     0.245770000000    -0.383142   
O26      O      0.346000000000     0.167280000000     0.244700000000    -0.38239    
O27      O      0.346230000000     0.121180000000     0.199820000000    -0.383757   
O28      O      0.346170000000     0.122000000000     0.291060000000    -0.382678   
O29      O      0.396530000000     0.121310000000     0.291170000000    -0.383848   
O30      O      0.396590000000     0.122180000000     0.199950000000    -0.382643   
O31      O      0.396430000000     0.167470000000     0.246330000000    -0.381892   
O32      O      0.396700000000     0.076010000000     0.245150000000    -0.382863   
O33      O      0.916590000000     0.645880000000     0.493660000000    -0.383341   
O34      O      0.825190000000     0.646040000000     0.495410000000    -0.382401   
O35      O      0.871620000000     0.645510000000     0.039910000000    -0.38163    
O36      O      0.870140000000     0.646360000000     0.448680000000    -0.382415   
O37      O      0.870950000000     0.596000000000     0.448250000000    -0.383944   
O38      O      0.870680000000     0.595150000000     0.039480000000    -0.380114   
O39      O      0.825100000000     0.595630000000     0.493430000000    -0.382132   
O40      O      0.916550000000     0.595510000000     0.493980000000    -0.382959   
O41      O      0.916580000000     0.645870000000     0.244650000000    -0.383199   
O42      O      0.825180000000     0.645990000000     0.242560000000    -0.382289   
O43      O      0.869990000000     0.646340000000     0.289450000000    -0.382357   
O44      O      0.871760000000     0.645490000000     0.198230000000    -0.383938   
O45      O      0.870840000000     0.595130000000     0.198650000000    -0.382403   
O46      O      0.870820000000     0.595980000000     0.289880000000    -0.383993   
O47      O      0.825120000000     0.595580000000     0.244520000000    -0.382292   
O48      O      0.916560000000     0.595500000000     0.244330000000    -0.383039   
O49      O      0.075630000000     0.646000000000     0.494620000000    -0.383261   
O50      O      0.167030000000     0.646290000000     0.496060000000    -0.382244   
O51      O      0.121910000000     0.646550000000     0.449540000000    -0.3825     
O52      O      0.120770000000     0.645690000000     0.040770000000    -0.381625   
O53      O      0.121790000000     0.595330000000     0.040340000000    -0.37994    
O54      O      0.121160000000     0.596190000000     0.449110000000    -0.384149   
O55      O      0.167190000000     0.595870000000     0.494070000000    -0.38202    
O56      O      0.075740000000     0.595630000000     0.494940000000    -0.382899   
O57      O      0.075620000000     0.646010000000     0.245150000000    -0.383263   
O58      O      0.167020000000     0.646340000000     0.243940000000    -0.382472   
O59      O      0.120860000000     0.645720000000     0.199120000000    -0.383845   
O60      O      0.121800000000     0.646580000000     0.290350000000    -0.382308   
O61      O      0.121080000000     0.596210000000     0.290780000000    -0.384054   
O62      O      0.121910000000     0.595360000000     0.199560000000    -0.382388   
O63      O      0.167210000000     0.595930000000     0.245930000000    -0.382084   
O64      O      0.075760000000     0.595640000000     0.244820000000    -0.382968   
O65      O      0.595700000000     0.075800000000     0.996410000000    -0.383414   
O66      O      0.595770000000     0.167230000000     0.495750000000    -0.382133   
O67      O      0.596180000000     0.121310000000     0.450660000000    -0.383896   
O68      O      0.595320000000     0.121740000000     0.041900000000    -0.380017   
O69      O      0.645680000000     0.120820000000     0.042320000000    -0.381595   
O70      O      0.646540000000     0.122130000000     0.451100000000    -0.382529   
O71      O      0.646190000000     0.167190000000     0.997720000000    -0.382991   
O72      O      0.646070000000     0.075770000000     0.996110000000    -0.383387   
O73      O      0.595670000000     0.075840000000     0.246430000000    -0.383048   
O74      O      0.595900000000     0.167300000000     0.247320000000    -0.38202    
O75      O      0.595350000000     0.121880000000     0.201090000000    -0.382325   
O76      O      0.596220000000     0.121270000000     0.292310000000    -0.384063   
O77      O      0.646580000000     0.122010000000     0.291880000000    -0.38249    
O78      O      0.645710000000     0.120860000000     0.200660000000    -0.383947   
O79      O      0.646310000000     0.167130000000     0.245330000000    -0.382367   
O80      O      0.646030000000     0.075730000000     0.246750000000    -0.383387   
O81      O      0.595690000000     0.916640000000     0.495170000000    -0.38318    
O82      O      0.595780000000     0.825210000000     0.496150000000    -0.382243   
O83      O      0.596170000000     0.871300000000     0.041080000000    -0.38159    
O84      O      0.595310000000     0.870540000000     0.449850000000    -0.382492   
O85      O      0.645670000000     0.871460000000     0.449420000000    -0.383861   
O86      O      0.646530000000     0.870480000000     0.040650000000    -0.380054   
O87      O      0.646190000000     0.825270000000     0.494170000000    -0.382336   
O88      O      0.646050000000     0.916680000000     0.495480000000    -0.38331    
O89      O      0.595640000000     0.916620000000     0.245630000000    -0.383139   
O90      O      0.595780000000     0.825190000000     0.244060000000    -0.382231   
O91      O      0.595290000000     0.870280000000     0.290660000000    -0.382488   
O92      O      0.596150000000     0.871520000000     0.199430000000    -0.383908   
O93      O      0.646510000000     0.870710000000     0.199860000000    -0.382357   
O94      O      0.645650000000     0.871220000000     0.291080000000    -0.384124   
O95      O      0.646190000000     0.825250000000     0.246040000000    -0.382387   
O96      O      0.646000000000     0.916680000000     0.245320000000    -0.383157   
O97      O      0.324970000000     0.372650000000     0.472720000000    -0.38288    
O98      O      0.416380000000     0.370460000000     0.472300000000    -0.382763   
O99      O      0.369410000000     0.325690000000     0.472050000000    -0.38213    
O100     O      0.371570000000     0.417000000000     0.472860000000    -0.384664   
O101     O      0.370270000000     0.416670000000     0.023100000000    -0.378861   
O102     O      0.372100000000     0.325160000000     0.022320000000    -0.379506   
O103     O      0.416690000000     0.371620000000     0.022550000000    -0.380814   
O104     O      0.325280000000     0.369820000000     0.022980000000    -0.378732   
O105     O      0.324540000000     0.370470000000     0.219310000000    -0.381999   
O106     O      0.416050000000     0.370650000000     0.217460000000    -0.381751   
O107     O      0.369930000000     0.325020000000     0.219010000000    -0.382151   
O108     O      0.370260000000     0.416510000000     0.217760000000    -0.381827   
O109     O      0.371380000000     0.417130000000     0.268000000000    -0.384769   
O110     O      0.371620000000     0.325780000000     0.269330000000    -0.382105   
O111     O      0.416960000000     0.371480000000     0.267700000000    -0.384869   
O112     O      0.325630000000     0.371840000000     0.269630000000    -0.38221    
O113     O      0.324970000000     0.622390000000     0.020810000000    -0.379723   
O114     O      0.416460000000     0.622230000000     0.021170000000    -0.37946    
O115     O      0.370320000000     0.667820000000     0.020220000000    -0.380177   
O116     O      0.370710000000     0.576400000000     0.021900000000    -0.379697   
O117     O      0.371140000000     0.575490000000     0.471650000000    -0.384206   
O118     O      0.371240000000     0.666910000000     0.469890000000    -0.381533   
O119     O      0.416680000000     0.621230000000     0.470920000000    -0.384443   
O120     O      0.325320000000     0.620770000000     0.470490000000    -0.382189   
O121     O      0.325470000000     0.620940000000     0.269270000000    -0.38186    
O122     O      0.416860000000     0.621320000000     0.268200000000    -0.384273   
O123     O      0.371460000000     0.667020000000     0.269340000000    -0.381772   
O124     O      0.371260000000     0.575630000000     0.268080000000    -0.384339   
O125     O      0.370500000000     0.576240000000     0.217830000000    -0.382125   
O126     O      0.370190000000     0.667700000000     0.219010000000    -0.38264    
O127     O      0.416280000000     0.622060000000     0.217950000000    -0.382277   
O128     O      0.324820000000     0.622290000000     0.218940000000    -0.382459   
O129     O      0.667300000000     0.372370000000     0.021220000000    -0.379921   
O130     O      0.575860000000     0.370330000000     0.021940000000    -0.379724   
O131     O      0.622780000000     0.325450000000     0.021880000000    -0.379001   
O132     O      0.620780000000     0.416830000000     0.021380000000    -0.381286   
O133     O      0.621880000000     0.416510000000     0.471130000000    -0.382447   
O134     O      0.619940000000     0.325080000000     0.471620000000    -0.382674   
O135     O      0.575420000000     0.371560000000     0.471700000000    -0.384027   
O136     O      0.666800000000     0.369650000000     0.470950000000    -0.381786   
O137     O      0.622060000000     0.324680000000     0.218610000000    -0.381932   
O138     O      0.621740000000     0.416190000000     0.216710000000    -0.381605   
O139     O      0.667450000000     0.370130000000     0.218330000000    -0.381996   
O140     O      0.575940000000     0.370330000000     0.216990000000    -0.381568   
O141     O      0.575310000000     0.371470000000     0.267240000000    -0.384798   
O142     O      0.666630000000     0.371840000000     0.268650000000    -0.382137   
O143     O      0.620870000000     0.417110000000     0.266960000000    -0.384863   
O144     O      0.620660000000     0.325790000000     0.268930000000    -0.38226    
O145     O      0.667090000000     0.620040000000     0.470430000000    -0.382765   
O146     O      0.575680000000     0.622170000000     0.470600000000    -0.382676   
O147     O      0.622610000000     0.667000000000     0.470200000000    -0.38181    
O148     O      0.620540000000     0.575620000000     0.470730000000    -0.384138   
O149     O      0.622120000000     0.575940000000     0.020960000000    -0.379765   
O150     O      0.620240000000     0.667380000000     0.020490000000    -0.379858   
O151     O      0.575680000000     0.620940000000     0.020840000000    -0.381209   
O152     O      0.667080000000     0.622770000000     0.020700000000    -0.378799   
O153     O      0.667010000000     0.622910000000     0.216860000000    -0.381015   
O154     O      0.575550000000     0.621170000000     0.217080000000    -0.383215   
O155     O      0.620180000000     0.667600000000     0.217700000000    -0.382119   
O156     O      0.621980000000     0.576090000000     0.216270000000    -0.381533   
O157     O      0.620570000000     0.575440000000     0.266510000000    -0.38476    
O158     O      0.622780000000     0.666740000000     0.267970000000    -0.382127   
O159     O      0.575810000000     0.622010000000     0.267340000000    -0.383001   
O160     O      0.667170000000     0.619750000000     0.267110000000    -0.383221   
O161     O      0.075630000000     0.346580000000     0.996610000000    -0.383464   
O162     O      0.167050000000     0.346490000000     0.998390000000    -0.383208   
O163     O      0.120620000000     0.346980000000     0.042900000000    -0.381635   
O164     O      0.122070000000     0.346120000000     0.451670000000    -0.382416   
O165     O      0.121230000000     0.396480000000     0.451240000000    -0.384119   
O166     O      0.121520000000     0.397340000000     0.042470000000    -0.380035   
O167     O      0.167090000000     0.396900000000     0.996420000000    -0.382832   
O168     O      0.075650000000     0.396940000000     0.996910000000    -0.383536   
O169     O      0.167160000000     0.396760000000     0.247900000000    -0.381927   
O170     O      0.075690000000     0.397030000000     0.246990000000    -0.382818   
O171     O      0.121120000000     0.396460000000     0.292890000000    -0.384065   
O172     O      0.121740000000     0.397320000000     0.201660000000    -0.382324   
O173     O      0.120700000000     0.346960000000     0.201230000000    -0.384      
O174     O      0.121860000000     0.346100000000     0.292460000000    -0.382502   
O175     O      0.075580000000     0.346660000000     0.247320000000    -0.383217   
O176     O      0.166970000000     0.346350000000     0.245910000000    -0.382488   
O177     O      0.825130000000     0.346340000000     0.994720000000    -0.382763   
O178     O      0.916550000000     0.346520000000     0.995940000000    -0.383481   
O179     O      0.870390000000     0.346420000000     0.041140000000    -0.380168   
O180     O      0.871280000000     0.346490000000     0.449910000000    -0.383777   
O181     O      0.870390000000     0.396850000000     0.450030000000    -0.382767   
O182     O      0.871150000000     0.396790000000     0.041260000000    -0.381363   
O183     O      0.916490000000     0.396880000000     0.995340000000    -0.383414   
O184     O      0.825060000000     0.396770000000     0.996330000000    -0.383108   
O185     O      0.825170000000     0.346270000000     0.244560000000    -0.382299   
O186     O      0.916570000000     0.346620000000     0.246130000000    -0.38328    
O187     O      0.870260000000     0.346440000000     0.291150000000    -0.382724   
O188     O      0.871480000000     0.346500000000     0.199920000000    -0.383772   
O189     O      0.870470000000     0.396860000000     0.200040000000    -0.382577   
O190     O      0.870930000000     0.396800000000     0.291270000000    -0.383948   
O191     O      0.916440000000     0.396980000000     0.245520000000    -0.383032   
O192     O      0.824980000000     0.396700000000     0.246190000000    -0.381921   
O193     O      0.345910000000     0.825490000000     0.995440000000    -0.383304   
O194     O      0.346260000000     0.916890000000     0.994720000000    -0.383594   
O195     O      0.345680000000     0.870940000000     0.949270000000    -0.382088   
O196     O      0.346550000000     0.871430000000     0.540510000000    -0.384078   
O197     O      0.396900000000     0.870380000000     0.540070000000    -0.382529   
O198     O      0.396040000000     0.871640000000     0.948850000000    -0.383653   
O199     O      0.396630000000     0.916740000000     0.495020000000    -0.382876   
O200     O      0.396320000000     0.825290000000     0.493450000000    -0.381946   
O201     O      0.345960000000     0.825480000000     0.743800000000    -0.382499   
O202     O      0.346290000000     0.916880000000     0.744810000000    -0.38335    
O203     O      0.346580000000     0.871540000000     0.698870000000    -0.384052   
O204     O      0.345710000000     0.870820000000     0.790090000000    -0.382412   
O205     O      0.396080000000     0.871550000000     0.790530000000    -0.383834   
O206     O      0.396940000000     0.870490000000     0.699300000000    -0.382344   
O207     O      0.396660000000     0.916750000000     0.744480000000    -0.382987   
O208     O      0.396370000000     0.825300000000     0.745790000000    -0.382027   
O209     O      0.346320000000     0.075910000000     0.495700000000    -0.383337   
O210     O      0.346080000000     0.167330000000     0.494820000000    -0.382281   
O211     O      0.346250000000     0.121300000000     0.949830000000    -0.383462   
O212     O      0.346190000000     0.121940000000     0.541060000000    -0.382792   
O213     O      0.396550000000     0.121200000000     0.541180000000    -0.383811   
O214     O      0.396610000000     0.122230000000     0.949950000000    -0.382372   
O215     O      0.396510000000     0.167430000000     0.496440000000    -0.382141   
O216     O      0.396680000000     0.075980000000     0.495100000000    -0.383097   
O217     O      0.346330000000     0.075880000000     0.745770000000    -0.383195   
O218     O      0.346000000000     0.167280000000     0.744700000000    -0.382426   
O219     O      0.346230000000     0.121180000000     0.699820000000    -0.383832   
O220     O      0.346170000000     0.122000000000     0.791060000000    -0.382692   
O221     O      0.396530000000     0.121310000000     0.791170000000    -0.383829   
O222     O      0.396590000000     0.122180000000     0.699950000000    -0.382703   
O223     O      0.396430000000     0.167470000000     0.746330000000    -0.381906   
O224     O      0.396700000000     0.076010000000     0.745160000000    -0.382893   
O225     O      0.916590000000     0.645880000000     0.993660000000    -0.383571   
O226     O      0.825190000000     0.646040000000     0.995410000000    -0.383273   
O227     O      0.871620000000     0.645510000000     0.539910000000    -0.384039   
O228     O      0.870140000000     0.646360000000     0.948680000000    -0.382084   
O229     O      0.870950000000     0.596000000000     0.948250000000    -0.383564   
O230     O      0.870680000000     0.595150000000     0.539480000000    -0.382542   
O231     O      0.825100000000     0.595630000000     0.993430000000    -0.382714   
O232     O      0.916550000000     0.595510000000     0.993980000000    -0.383183   
O233     O      0.916580000000     0.645870000000     0.744650000000    -0.38325    
O234     O      0.825180000000     0.645990000000     0.742550000000    -0.382313   
O235     O      0.869990000000     0.646340000000     0.789450000000    -0.382384   
O236     O      0.871760000000     0.645490000000     0.698230000000    -0.383998   
O237     O      0.870840000000     0.595130000000     0.698650000000    -0.382453   
O238     O      0.870820000000     0.595980000000     0.789880000000    -0.383988   
O239     O      0.825120000000     0.595580000000     0.744520000000    -0.382304   
O240     O      0.916560000000     0.595500000000     0.744330000000    -0.383066   
O241     O      0.075630000000     0.646000000000     0.994610000000    -0.383493   
O242     O      0.167030000000     0.646290000000     0.996060000000    -0.383128   
O243     O      0.121910000000     0.646550000000     0.949540000000    -0.382156   
O244     O      0.120770000000     0.645690000000     0.540770000000    -0.384011   
O245     O      0.121790000000     0.595330000000     0.540340000000    -0.382363   
O246     O      0.121160000000     0.596190000000     0.949110000000    -0.383755   
O247     O      0.167190000000     0.595870000000     0.994070000000    -0.382579   
O248     O      0.075740000000     0.595630000000     0.994940000000    -0.383125   
O249     O      0.075620000000     0.646010000000     0.745150000000    -0.383314   
O250     O      0.167020000000     0.646340000000     0.743940000000    -0.382504   
O251     O      0.120860000000     0.645720000000     0.699120000000    -0.383912   
O252     O      0.121800000000     0.646580000000     0.790350000000    -0.382329   
O253     O      0.121080000000     0.596210000000     0.790780000000    -0.384046   
O254     O      0.121910000000     0.595360000000     0.699560000000    -0.382439   
O255     O      0.167210000000     0.595930000000     0.745930000000    -0.3821     
O256     O      0.075760000000     0.595640000000     0.744820000000    -0.382995   
O257     O      0.595700000000     0.075800000000     0.496410000000    -0.383186   
O258     O      0.595770000000     0.167230000000     0.995750000000    -0.382714   
O259     O      0.596180000000     0.121310000000     0.950660000000    -0.383514   
O260     O      0.595320000000     0.121740000000     0.541900000000    -0.382432   
O261     O      0.645680000000     0.120820000000     0.542320000000    -0.383998   
O262     O      0.646540000000     0.122130000000     0.951100000000    -0.382195   
O263     O      0.646190000000     0.167190000000     0.497720000000    -0.382114   
O264     O      0.646070000000     0.075770000000     0.496110000000    -0.383153   
O265     O      0.595670000000     0.075840000000     0.746430000000    -0.383076   
O266     O      0.595900000000     0.167300000000     0.747320000000    -0.382038   
O267     O      0.595350000000     0.121880000000     0.701090000000    -0.382373   
O268     O      0.596220000000     0.121270000000     0.792310000000    -0.384086   
O269     O      0.646580000000     0.122010000000     0.791890000000    -0.382471   
O270     O      0.645710000000     0.120860000000     0.700660000000    -0.384005   
O271     O      0.646310000000     0.167130000000     0.745340000000    -0.382394   
O272     O      0.646030000000     0.075730000000     0.746750000000    -0.383427   
O273     O      0.595690000000     0.916640000000     0.995170000000    -0.383392   
O274     O      0.595780000000     0.825210000000     0.996150000000    -0.383109   
O275     O      0.596170000000     0.871300000000     0.541080000000    -0.384083   
O276     O      0.595310000000     0.870540000000     0.949850000000    -0.382313   
O277     O      0.645670000000     0.871460000000     0.949420000000    -0.383613   
O278     O      0.646530000000     0.870480000000     0.540650000000    -0.382495   
O279     O      0.646190000000     0.825270000000     0.994170000000    -0.382922   
O280     O      0.646050000000     0.916680000000     0.995480000000    -0.383557   
O281     O      0.595640000000     0.916620000000     0.745630000000    -0.383178   
O282     O      0.595780000000     0.825190000000     0.744060000000    -0.382253   
O283     O      0.595290000000     0.870280000000     0.790650000000    -0.382518   
O284     O      0.596150000000     0.871520000000     0.699430000000    -0.383973   
O285     O      0.646510000000     0.870710000000     0.699860000000    -0.382409   
O286     O      0.645650000000     0.871220000000     0.791090000000    -0.384058   
O287     O      0.646190000000     0.825250000000     0.746040000000    -0.382409   
O288     O      0.646000000000     0.916680000000     0.745320000000    -0.383197   
O289     O      0.324970000000     0.372650000000     0.972720000000    -0.382163   
O290     O      0.416380000000     0.370460000000     0.972300000000    -0.382105   
O291     O      0.369410000000     0.325690000000     0.972050000000    -0.381448   
O292     O      0.371570000000     0.417000000000     0.972860000000    -0.383964   
O293     O      0.370270000000     0.416670000000     0.523100000000    -0.381563   
O294     O      0.372100000000     0.325160000000     0.522320000000    -0.382211   
O295     O      0.416690000000     0.371620000000     0.522550000000    -0.383464   
O296     O      0.325280000000     0.369820000000     0.522980000000    -0.381489   
O297     O      0.324540000000     0.370470000000     0.719310000000    -0.382048   
O298     O      0.416050000000     0.370650000000     0.717450000000    -0.381631   
O299     O      0.369930000000     0.325020000000     0.719010000000    -0.382193   
O300     O      0.370260000000     0.416510000000     0.717760000000    -0.381861   
O301     O      0.371380000000     0.417130000000     0.768000000000    -0.38478    
O302     O      0.371620000000     0.325780000000     0.769330000000    -0.382126   
O303     O      0.416960000000     0.371480000000     0.767700000000    -0.384821   
O304     O      0.325630000000     0.371840000000     0.769630000000    -0.38223    
O305     O      0.324970000000     0.622390000000     0.520810000000    -0.382451   
O306     O      0.416460000000     0.622230000000     0.521170000000    -0.382176   
O307     O      0.370320000000     0.667820000000     0.520220000000    -0.382899   
O308     O      0.370710000000     0.576400000000     0.521900000000    -0.382413   
O309     O      0.371140000000     0.575490000000     0.971650000000    -0.383486   
O310     O      0.371240000000     0.666910000000     0.969890000000    -0.38084    
O311     O      0.416680000000     0.621230000000     0.970920000000    -0.383725   
O312     O      0.325320000000     0.620770000000     0.970490000000    -0.38149    
O313     O      0.325470000000     0.620940000000     0.769270000000    -0.381862   
O314     O      0.416860000000     0.621320000000     0.768200000000    -0.384265   
O315     O      0.371460000000     0.667020000000     0.769340000000    -0.381775   
O316     O      0.371260000000     0.575630000000     0.768080000000    -0.384334   
O317     O      0.370500000000     0.576240000000     0.717830000000    -0.382149   
O318     O      0.370190000000     0.667700000000     0.719010000000    -0.382669   
O319     O      0.416280000000     0.622060000000     0.717950000000    -0.382295   
O320     O      0.324820000000     0.622290000000     0.718940000000    -0.382492   
O321     O      0.667300000000     0.372370000000     0.521220000000    -0.382609   
O322     O      0.575860000000     0.370330000000     0.521940000000    -0.382406   
O323     O      0.622780000000     0.325450000000     0.521880000000    -0.381731   
O324     O      0.620780000000     0.416830000000     0.521380000000    -0.38386    
O325     O      0.621880000000     0.416510000000     0.971140000000    -0.381964   
O326     O      0.619940000000     0.325080000000     0.971620000000    -0.38199    
O327     O      0.575420000000     0.371560000000     0.971700000000    -0.383357   
O328     O      0.666800000000     0.369650000000     0.970950000000    -0.381133   
O329     O      0.622060000000     0.324680000000     0.718610000000    -0.381968   
O330     O      0.621740000000     0.416190000000     0.716710000000    -0.381623   
O331     O      0.667450000000     0.370130000000     0.718330000000    -0.381942   
O332     O      0.575940000000     0.370330000000     0.716990000000    -0.381651   
O333     O      0.575310000000     0.371470000000     0.767230000000    -0.384951   
O334     O      0.666630000000     0.371840000000     0.768650000000    -0.38223    
O335     O      0.620870000000     0.417110000000     0.766960000000    -0.384863   
O336     O      0.620660000000     0.325790000000     0.768930000000    -0.382267   
O337     O      0.667090000000     0.620040000000     0.970430000000    -0.382145   
O338     O      0.575680000000     0.622170000000     0.970600000000    -0.382082   
O339     O      0.622610000000     0.667000000000     0.970200000000    -0.381134   
O340     O      0.620540000000     0.575620000000     0.970730000000    -0.383443   
O341     O      0.622120000000     0.575940000000     0.520960000000    -0.382465   
O342     O      0.620240000000     0.667380000000     0.520490000000    -0.382561   
O343     O      0.575680000000     0.620940000000     0.520850000000    -0.383712   
O344     O      0.667080000000     0.622770000000     0.520700000000    -0.38163    
O345     O      0.667010000000     0.622910000000     0.716860000000    -0.381053   
O346     O      0.575550000000     0.621170000000     0.717080000000    -0.383233   
O347     O      0.620180000000     0.667600000000     0.717700000000    -0.382153   
O348     O      0.621980000000     0.576090000000     0.716270000000    -0.381553   
O349     O      0.620570000000     0.575440000000     0.766510000000    -0.384755   
O350     O      0.622780000000     0.666740000000     0.767970000000    -0.382127   
O351     O      0.575810000000     0.622010000000     0.767340000000    -0.382996   
O352     O      0.667170000000     0.619750000000     0.767110000000    -0.383224   
O353     O      0.075630000000     0.346580000000     0.496610000000    -0.383219   
O354     O      0.167050000000     0.346490000000     0.498380000000    -0.382325   
O355     O      0.120620000000     0.346980000000     0.542900000000    -0.38403    
O356     O      0.122070000000     0.346120000000     0.951680000000    -0.382118   
O357     O      0.121230000000     0.396480000000     0.951240000000    -0.383702   
O358     O      0.121520000000     0.397340000000     0.542470000000    -0.382467   
O359     O      0.167090000000     0.396900000000     0.496420000000    -0.382268   
O360     O      0.075650000000     0.396940000000     0.496910000000    -0.38331    
O361     O      0.167160000000     0.396760000000     0.747910000000    -0.381932   
O362     O      0.075690000000     0.397030000000     0.746990000000    -0.382842   
O363     O      0.121120000000     0.396460000000     0.792890000000    -0.383953   
O364     O      0.121740000000     0.397320000000     0.701660000000    -0.382387   
O365     O      0.120700000000     0.346960000000     0.701230000000    -0.384074   
O366     O      0.121860000000     0.346100000000     0.792460000000    -0.38242    
O367     O      0.075580000000     0.346660000000     0.747320000000    -0.383267   
O368     O      0.166970000000     0.346350000000     0.745910000000    -0.382518   
O369     O      0.825130000000     0.346340000000     0.494720000000    -0.382177   
O370     O      0.916550000000     0.346520000000     0.495940000000    -0.383233   
O371     O      0.870390000000     0.346420000000     0.541140000000    -0.382594   
O372     O      0.871280000000     0.346490000000     0.949910000000    -0.383441   
O373     O      0.870390000000     0.396850000000     0.950030000000    -0.38242    
O374     O      0.871150000000     0.396790000000     0.541260000000    -0.383762   
O375     O      0.916490000000     0.396880000000     0.495340000000    -0.383204   
O376     O      0.825060000000     0.396770000000     0.496330000000    -0.382242   
O377     O      0.825170000000     0.346270000000     0.744560000000    -0.382343   
O378     O      0.916570000000     0.346620000000     0.746130000000    -0.383344   
O379     O      0.870260000000     0.346440000000     0.791140000000    -0.38277    
O380     O      0.871480000000     0.346500000000     0.699920000000    -0.383863   
O381     O      0.870470000000     0.396860000000     0.700040000000    -0.382626   
O382     O      0.870930000000     0.396800000000     0.791270000000    -0.383908   
O383     O      0.916440000000     0.396980000000     0.745520000000    -0.383058   
O384     O      0.824980000000     0.396700000000     0.746190000000    -0.381934   


