data_structure

_audit_creation_method RASPA-1.0
_audit_creation_date 2023-5-22
_audit_author_name 'Poobodin Mano'

_cell_length_a    44.4423
_cell_length_b    44.4429
_cell_length_c    44.3497
_cell_angle_alpha 90
_cell_angle_beta  90
_cell_angle_gamma 90
_cell_volume      87597.1

_symmetry_cell_setting          triclinic
_symmetry_space_group_name_Hall 'P 1'
_symmetry_space_group_name_H-M  'P 1'
_symmetry_Int_Tables_number     1

_symmetry_equiv_pos_as_xyz 'x,y,z'

loop_
_atom_site_label
_atom_site_type_symbol
_atom_site_fract_x
_atom_site_fract_y
_atom_site_fract_z
_atom_site_charge
C1       C      0.495270000000     0.995260000000     0.181370000000     0.350683   
C2       C      0.995270000000     0.495210000000     0.061600000000     0.345167   
C3       C      0.995320000000     0.055050000000     0.121540000000     0.344126   
C4       C      0.495210000000     0.435420000000     0.121590000000     0.349277   
C5       C      0.995270000000     0.245250000000     0.061600000000     0.344994   
C6       C      0.495260000000     0.245200000000     0.181370000000     0.349885   
C7       C      0.995220000000     0.185420000000     0.121540000000     0.344668   
C8       C      0.995310000000     0.305050000000     0.121580000000     0.344962   
C9       C      0.245230000000     0.495260000000     0.181360000000     0.349881   
C10      C      0.245210000000     0.495210000000     0.061600000000     0.3494     
C11      C      0.245760000000     0.055050000000     0.121530000000     0.348252   
C12      C      0.244670000000     0.435420000000     0.121570000000     0.349134   
C13      C      0.245210000000     0.245250000000     0.061600000000     0.349437   
C14      C      0.245220000000     0.245200000000     0.181370000000     0.349587   
C15      C      0.245760000000     0.185420000000     0.121530000000     0.349042   
C16      C      0.244670000000     0.305050000000     0.121570000000     0.34908    
C17      C      0.995260000000     0.495200000000     0.930950000000     0.345067   
C18      C      0.995250000000     0.495250000000     0.811180000000     0.345301   
C19      C      0.994710000000     0.055040000000     0.871020000000     0.344139   
C20      C      0.995800000000     0.435410000000     0.870970000000     0.344858   
C21      C      0.995260000000     0.245250000000     0.930950000000     0.345087   
C22      C      0.995250000000     0.245200000000     0.811180000000     0.345461   
C23      C      0.995800000000     0.305040000000     0.870970000000     0.344774   
C24      C      0.994710000000     0.185410000000     0.871020000000     0.344835   
C25      C      0.245210000000     0.495200000000     0.930940000000     0.349595   
C26      C      0.245210000000     0.495250000000     0.811170000000     0.349772   
C27      C      0.245160000000     0.435410000000     0.870960000000     0.348945   
C28      C      0.245250000000     0.055040000000     0.871010000000     0.348596   
C29      C      0.245210000000     0.245250000000     0.930940000000     0.349649   
C30      C      0.245210000000     0.245200000000     0.811180000000     0.349572   
C31      C      0.245260000000     0.305040000000     0.870960000000     0.348938   
C32      C      0.245150000000     0.185410000000     0.871010000000     0.349024   
C33      C      0.995250000000     0.995370000000     0.430940000000     0.344915   
C34      C      0.995260000000     0.995330000000     0.311170000000     0.346179   
C35      C      0.055070000000     0.995400000000     0.370990000000     0.344276   
C36      C      0.435440000000     0.995300000000     0.370980000000     0.344587   
C37      C      0.995240000000     0.245130000000     0.311180000000     0.350568   
C38      C      0.995230000000     0.245100000000     0.430950000000     0.34886    
C39      C      0.435420000000     0.244570000000     0.370990000000     0.348815   
C40      C      0.055050000000     0.245660000000     0.371000000000     0.348416   
C41      C      0.245250000000     0.495330000000     0.311170000000     0.349771   
C42      C      0.245250000000     0.495370000000     0.430940000000     0.349356   
C43      C      0.185440000000     0.495300000000     0.370990000000     0.349018   
C44      C      0.305070000000     0.495400000000     0.370980000000     0.34893    
C45      C      0.245230000000     0.245130000000     0.311180000000     0.3498     
C46      C      0.245230000000     0.245100000000     0.430950000000     0.3493     
C47      C      0.185420000000     0.245660000000     0.371000000000     0.349092   
C48      C      0.305050000000     0.244570000000     0.370990000000     0.348881   
C49      C      0.995240000000     0.495330000000     0.681370000000     0.350718   
C50      C      0.995240000000     0.495360000000     0.561600000000     0.349054   
C51      C      0.055050000000     0.494800000000     0.621550000000     0.348591   
C52      C      0.435420000000     0.495890000000     0.621550000000     0.349074   
C53      C      0.995220000000     0.245130000000     0.681370000000     0.350717   
C54      C      0.995220000000     0.245090000000     0.561600000000     0.34904    
C55      C      0.055040000000     0.245150000000     0.621560000000     0.348552   
C56      C      0.435400000000     0.245060000000     0.621560000000     0.348984   
C57      C      0.245230000000     0.495330000000     0.681370000000     0.349904   
C58      C      0.245240000000     0.495360000000     0.561600000000     0.349506   
C59      C      0.185420000000     0.494800000000     0.621550000000     0.349156   
C60      C      0.305050000000     0.495890000000     0.621550000000     0.349179   
C61      C      0.245210000000     0.245120000000     0.681370000000     0.349819   
C62      C      0.245230000000     0.245090000000     0.561600000000     0.349542   
C63      C      0.185400000000     0.245050000000     0.621550000000     0.349281   
C64      C      0.305040000000     0.245160000000     0.621570000000     0.348882   
C65      C      0.385970000000     0.272320000000     0.621580000000    -0.00512823 
C66      C      0.402050000000     0.245070000000     0.621580000000    -0.0817197  
C67      C      0.385920000000     0.217850000000     0.621600000000    -0.00511709 
C68      C      0.354480000000     0.217900000000     0.621590000000    -0.00505444 
C69      C      0.338390000000     0.245150000000     0.621580000000    -0.0817033  
C70      C      0.354520000000     0.272370000000     0.621590000000    -0.00522468 
C71      C      0.104470000000     0.217890000000     0.621580000000    -0.00529761 
C72      C      0.088390000000     0.245150000000     0.621570000000    -0.0808001  
C73      C      0.104520000000     0.272360000000     0.621580000000    -0.00515363 
C74      C      0.135960000000     0.272320000000     0.621560000000    -0.00475959 
C75      C      0.152050000000     0.245060000000     0.621570000000    -0.0818316  
C76      C      0.135920000000     0.217850000000     0.621590000000    -0.00471185 
C77      C      0.385970000000     0.023290000000     0.622010000000    -0.00102426 
C78      C      0.402070000000     0.496040000000     0.621560000000    -0.0817769  
C79      C      0.385950000000     0.468830000000     0.621130000000    -0.00520926 
C80      C      0.354530000000     0.468830000000     0.621130000000    -0.00526907 
C81      C      0.338410000000     0.496040000000     0.621570000000    -0.0816852  
C82      C      0.354500000000     0.023290000000     0.622010000000    -0.00106486 
C83      C      0.104530000000     0.021870000000     0.621140000000    -0.001418   
C84      C      0.088410000000     0.494650000000     0.621560000000    -0.0806926  
C85      C      0.104500000000     0.467400000000     0.621990000000    -0.00515646 
C86      C      0.135980000000     0.467400000000     0.621990000000    -0.00466302 
C87      C      0.152070000000     0.494650000000     0.621560000000    -0.0817805  
C88      C      0.135950000000     0.021870000000     0.621140000000    -0.000921144
C89      C      0.245310000000     0.272320000000     0.480520000000    -0.00493673 
C90      C      0.245230000000     0.245090000000     0.464380000000    -0.0814243  
C91      C      0.245160000000     0.217860000000     0.480520000000    -0.00490251 
C92      C      0.245140000000     0.217860000000     0.512030000000    -0.0048438  
C93      C      0.245230000000     0.245090000000     0.528170000000    -0.0815374  
C94      C      0.245320000000     0.272320000000     0.512030000000    -0.00485431 
C95      C      0.244990000000     0.468140000000     0.480510000000    -0.00489709 
C96      C      0.245250000000     0.495370000000     0.464370000000    -0.0814496  
C97      C      0.245520000000     0.022600000000     0.480510000000    -0.000855631
C98      C      0.245510000000     0.022600000000     0.512030000000    -0.000967988
C99      C      0.245250000000     0.495370000000     0.528170000000    -0.0814619  
C100     C      0.244980000000     0.468140000000     0.512030000000    -0.00490812 
C101     C      0.494960000000     0.217860000000     0.480520000000    -0.00494675 
C102     C      0.995230000000     0.245090000000     0.464380000000    -0.0818111  
C103     C      0.995490000000     0.272320000000     0.480520000000    -0.00527876 
C104     C      0.995490000000     0.272320000000     0.512030000000    -0.00518797 
C105     C      0.995220000000     0.245090000000     0.528170000000    -0.0819185  
C106     C      0.494950000000     0.217860000000     0.512030000000    -0.00489543 
C107     C      0.385950000000     0.271630000000     0.371420000000    -0.00532359 
C108     C      0.402060000000     0.244410000000     0.370980000000    -0.0815621  
C109     C      0.385970000000     0.217170000000     0.370540000000    -0.00507529 
C110     C      0.354500000000     0.217170000000     0.370540000000    -0.00499853 
C111     C      0.338400000000     0.244410000000     0.370980000000    -0.0816986  
C112     C      0.354520000000     0.271630000000     0.371420000000    -0.00524388 
C113     C      0.104520000000     0.218590000000     0.371410000000    -0.0053428  
C114     C      0.088410000000     0.245810000000     0.370990000000    -0.0806934  
C115     C      0.104500000000     0.273050000000     0.370560000000    -0.00511098 
C116     C      0.135970000000     0.273050000000     0.370560000000    -0.00468192 
C117     C      0.152060000000     0.245810000000     0.370990000000    -0.08168    
C118     C      0.135950000000     0.218590000000     0.371410000000    -0.00489385 
C119     C      0.495330000000     0.022600000000     0.480510000000    -0.000934055
C120     C      0.995240000000     0.995370000000     0.464370000000    -0.0855499  
C121     C      0.995160000000     0.468140000000     0.480510000000    -0.00524062 
C122     C      0.995160000000     0.468140000000     0.512030000000    -0.00522533 
C123     C      0.995240000000     0.495370000000     0.528170000000    -0.0818816  
C124     C      0.495320000000     0.022600000000     0.512030000000    -0.000960793
C125     C      0.354550000000     0.022600000000     0.370940000000    -0.00108231 
C126     C      0.338430000000     0.995390000000     0.370960000000    -0.0852957  
C127     C      0.354510000000     0.468140000000     0.370970000000    -0.0051647  
C128     C      0.385960000000     0.468090000000     0.370960000000    -0.00520894 
C129     C      0.402080000000     0.995300000000     0.370960000000    -0.0852581  
C130     C      0.386000000000     0.022560000000     0.370960000000    -0.00119109 
C131     C      0.104550000000     0.022610000000     0.370960000000    -0.00118599 
C132     C      0.088430000000     0.995400000000     0.370970000000    -0.0843744  
C133     C      0.104510000000     0.468140000000     0.370980000000    -0.00520562 
C134     C      0.135960000000     0.468100000000     0.370970000000    -0.00481104 
C135     C      0.152080000000     0.995310000000     0.370970000000    -0.0852677  
C136     C      0.136000000000     0.022570000000     0.370970000000    -0.000941327
C137     C      0.225730000000     0.264250000000     0.762020000000    -0.00353659 
C138     C      0.245210000000     0.245170000000     0.778000000000    -0.082009   
C139     C      0.264680000000     0.226070000000     0.762050000000    -0.00351145 
C140     C      0.264300000000     0.225670000000     0.730530000000    -0.00338144 
C141     C      0.245210000000     0.245140000000     0.714550000000    -0.0821981  
C142     C      0.226120000000     0.264620000000     0.730500000000    -0.00333322 
C143     C      0.264770000000     0.476260000000     0.762020000000    -0.00344969 
C144     C      0.245220000000     0.495270000000     0.778000000000    -0.0821652  
C145     C      0.225670000000     0.014300000000     0.762040000000     0.00169787 
C146     C      0.226060000000     0.014710000000     0.730520000000     0.00020803 
C147     C      0.245230000000     0.495310000000     0.714540000000    -0.082251   
C148     C      0.264390000000     0.475900000000     0.730500000000    -0.0033388  
C149     C      0.217950000000     0.385930000000     0.870920000000    -0.00515993 
C150     C      0.245170000000     0.402050000000     0.870940000000    -0.0816223  
C151     C      0.272420000000     0.385970000000     0.870940000000    -0.00515074 
C152     C      0.272470000000     0.354520000000     0.870930000000    -0.00524936 
C153     C      0.245250000000     0.338400000000     0.870940000000    -0.0816265  
C154     C      0.218000000000     0.354480000000     0.870930000000    -0.00506978 
C155     C      0.272460000000     0.104520000000     0.870990000000    -0.00511107 
C156     C      0.245250000000     0.088400000000     0.871000000000    -0.0807507  
C157     C      0.217990000000     0.104480000000     0.871000000000    -0.00528026 
C158     C      0.217950000000     0.135930000000     0.870990000000    -0.00480647 
C159     C      0.245160000000     0.152050000000     0.871000000000    -0.0816155  
C160     C      0.272420000000     0.135970000000     0.871000000000    -0.00485975 
C161     C      0.475830000000     0.264330000000     0.762030000000    -0.00346922 
C162     C      0.995240000000     0.245180000000     0.778000000000    -0.0854179  
C163     C      0.014640000000     0.226000000000     0.762050000000     0.000179266
C164     C      0.014250000000     0.225600000000     0.730530000000     0.0017072  
C165     C      0.995220000000     0.245140000000     0.714550000000    -0.0874403  
C166     C      0.476210000000     0.264690000000     0.730510000000    -0.00336189 
C167     C      0.475770000000     0.476190000000     0.762020000000    -0.00346812 
C168     C      0.995250000000     0.495270000000     0.778000000000    -0.0853478  
C169     C      0.014720000000     0.014370000000     0.762040000000     0.00523048 
C170     C      0.014330000000     0.014780000000     0.730520000000     0.00530143 
C171     C      0.995240000000     0.495310000000     0.714550000000    -0.0875091  
C172     C      0.476150000000     0.475830000000     0.730500000000    -0.00333086 
C173     C      0.468730000000     0.385940000000     0.871380000000    -0.00522903 
C174     C      0.995950000000     0.402060000000     0.870950000000    -0.0853606  
C175     C      0.023200000000     0.385960000000     0.870510000000    -0.00103548 
C176     C      0.023200000000     0.354490000000     0.870510000000    -0.00104879 
C177     C      0.995950000000     0.338390000000     0.870950000000    -0.0853409  
C178     C      0.468730000000     0.354510000000     0.871380000000    -0.00525658 
C179     C      0.021780000000     0.104510000000     0.871440000000    -0.00136969 
C180     C      0.994560000000     0.088390000000     0.871020000000    -0.0844314  
C181     C      0.467310000000     0.104490000000     0.870580000000    -0.00510618 
C182     C      0.467310000000     0.135960000000     0.870580000000    -0.00472778 
C183     C      0.994560000000     0.152050000000     0.871020000000    -0.0853174  
C184     C      0.021780000000     0.135940000000     0.871440000000    -0.00097926 
C185     C      0.225750000000     0.226080000000     0.230500000000    -0.00343851 
C186     C      0.245230000000     0.245180000000     0.214550000000    -0.0820092  
C187     C      0.264700000000     0.264260000000     0.230520000000    -0.00339951 
C188     C      0.264320000000     0.264630000000     0.262040000000    -0.00335572 
C189     C      0.245230000000     0.245150000000     0.278000000000    -0.0820852  
C190     C      0.226140000000     0.225680000000     0.262020000000    -0.00333095 
C191     C      0.272450000000     0.245340000000     0.012030000000    -0.00500917 
C192     C      0.245210000000     0.245260000000     0.028170000000    -0.0814251  
C193     C      0.217980000000     0.245180000000     0.012030000000    -0.00486988 
C194     C      0.217970000000     0.245180000000     0.980510000000    -0.00492571 
C195     C      0.245210000000     0.245260000000     0.964370000000    -0.0815315  
C196     C      0.272440000000     0.245340000000     0.980510000000    -0.00482507 
C197     C      0.225830000000     0.014460000000     0.230500000000     0.00165639 
C198     C      0.245230000000     0.495280000000     0.214540000000    -0.0820976  
C199     C      0.264640000000     0.476130000000     0.230520000000    -0.00341252 
C200     C      0.264260000000     0.475760000000     0.262040000000    -0.00341199 
C201     C      0.245250000000     0.495320000000     0.277990000000    -0.082111   
C202     C      0.226230000000     0.014860000000     0.262020000000     0.000216315
C203     C      0.272440000000     0.995460000000     0.012030000000    -0.00529342 
C204     C      0.245210000000     0.495200000000     0.028170000000    -0.0814689  
C205     C      0.217970000000     0.494930000000     0.012030000000    -0.00498642 
C206     C      0.217970000000     0.494930000000     0.980510000000    -0.00494428 
C207     C      0.245210000000     0.495200000000     0.964370000000    -0.081564   
C208     C      0.272440000000     0.995460000000     0.980510000000    -0.00521814 
C209     C      0.217280000000     0.354500000000     0.122030000000    -0.00495527 
C210     C      0.244520000000     0.338400000000     0.121590000000    -0.0817837  
C211     C      0.271740000000     0.354520000000     0.121170000000    -0.0052213  
C212     C      0.271740000000     0.385940000000     0.121170000000    -0.00528467 
C213     C      0.244520000000     0.402060000000     0.121590000000    -0.0816799  
C214     C      0.217280000000     0.385970000000     0.122030000000    -0.00502434 
C215     C      0.273160000000     0.104500000000     0.121960000000    -0.00510919 
C216     C      0.245910000000     0.088400000000     0.121530000000    -0.0807198  
C217     C      0.218700000000     0.104520000000     0.121100000000    -0.00531683 
C218     C      0.218700000000     0.135940000000     0.121100000000    -0.0048997  
C219     C      0.245910000000     0.152060000000     0.121530000000    -0.0816228  
C220     C      0.273160000000     0.135970000000     0.121960000000    -0.00471988 
C221     C      0.475700000000     0.264190000000     0.230520000000    -0.00338883 
C222     C      0.995260000000     0.245190000000     0.214550000000    -0.0854023  
C223     C      0.014800000000     0.226160000000     0.230510000000     0.0002113  
C224     C      0.014410000000     0.225750000000     0.262030000000     0.00166179 
C225     C      0.995240000000     0.245150000000     0.278000000000    -0.0873701  
C226     C      0.476080000000     0.264560000000     0.262040000000    -0.00343398 
C227     C      0.022500000000     0.245530000000     0.012030000000    -0.000938094
C228     C      0.995270000000     0.245260000000     0.028180000000    -0.0851166  
C229     C      0.468040000000     0.245000000000     0.012040000000    -0.00480961 
C230     C      0.468030000000     0.245000000000     0.980520000000    -0.00503323 
C231     C      0.995270000000     0.245260000000     0.964380000000    -0.0850444  
C232     C      0.022500000000     0.245520000000     0.980520000000    -0.000958106
C233     C      0.014750000000     0.476200000000     0.230520000000     7.17181e-05
C234     C      0.995270000000     0.995280000000     0.214550000000    -0.0907344  
C235     C      0.475790000000     0.014380000000     0.230500000000     0.00161982 
C236     C      0.476180000000     0.014790000000     0.262020000000     0.000192413
C237     C      0.995270000000     0.995320000000     0.278000000000    -0.0908753  
C238     C      0.014360000000     0.475840000000     0.262040000000     0.00173534 
C239     C      0.968030000000     0.495110000000     0.012040000000    -0.00482307 
C240     C      0.995270000000     0.495200000000     0.028170000000    -0.0851823  
C241     C      0.022500000000     0.995280000000     0.012030000000    -0.00124765 
C242     C      0.022500000000     0.995270000000     0.980520000000    -0.00132156 
C243     C      0.995260000000     0.495190000000     0.964380000000    -0.0851173  
C244     C      0.968030000000     0.495120000000     0.980520000000    -0.00481931 
C245     C      0.468010000000     0.385940000000     0.121620000000    -0.0051147  
C246     C      0.995220000000     0.402060000000     0.121610000000    -0.085239   
C247     C      0.022480000000     0.385980000000     0.121610000000    -0.00125582 
C248     C      0.022520000000     0.354530000000     0.121620000000    -0.0010142  
C249     C      0.995310000000     0.338400000000     0.121610000000    -0.0854719  
C250     C      0.468050000000     0.354490000000     0.121610000000    -0.00520535 
C251     C      0.022480000000     0.135980000000     0.121550000000    -0.000885304
C252     C      0.995220000000     0.152060000000     0.121550000000    -0.0852525  
C253     C      0.468010000000     0.135930000000     0.121560000000    -0.00480304 
C254     C      0.468060000000     0.104490000000     0.121540000000    -0.00515824 
C255     C      0.995310000000     0.088400000000     0.121550000000    -0.0843821  
C256     C      0.022530000000     0.104530000000     0.121560000000    -0.00128103 
C257     C      0.495270000000     0.495260000000     0.181370000000     0.349826   
C258     C      0.995270000000     0.995210000000     0.061600000000     0.344732   
C259     C      0.995320000000     0.555050000000     0.121540000000     0.344724   
C260     C      0.495210000000     0.935420000000     0.121590000000     0.348983   
C261     C      0.995270000000     0.745250000000     0.061600000000     0.344981   
C262     C      0.495260000000     0.745210000000     0.181370000000     0.34988    
C263     C      0.995220000000     0.685420000000     0.121540000000     0.344616   
C264     C      0.995310000000     0.805050000000     0.121580000000     0.344947   
C265     C      0.245230000000     0.995260000000     0.181360000000     0.350725   
C266     C      0.245210000000     0.995210000000     0.061600000000     0.348951   
C267     C      0.245760000000     0.555050000000     0.121530000000     0.348847   
C268     C      0.244670000000     0.935420000000     0.121570000000     0.348955   
C269     C      0.245210000000     0.745250000000     0.061600000000     0.349428   
C270     C      0.245220000000     0.745210000000     0.181370000000     0.34959    
C271     C      0.245760000000     0.685420000000     0.121530000000     0.348966   
C272     C      0.244670000000     0.805050000000     0.121570000000     0.34909    
C273     C      0.995260000000     0.995200000000     0.930950000000     0.344635   
C274     C      0.995250000000     0.995250000000     0.811180000000     0.346167   
C275     C      0.994710000000     0.555040000000     0.871020000000     0.344682   
C276     C      0.995800000000     0.935410000000     0.870970000000     0.344516   
C277     C      0.995260000000     0.745250000000     0.930950000000     0.34508    
C278     C      0.995250000000     0.745200000000     0.811180000000     0.345473   
C279     C      0.995800000000     0.805040000000     0.870970000000     0.344802   
C280     C      0.994710000000     0.685410000000     0.871020000000     0.344693   
C281     C      0.245210000000     0.995200000000     0.930940000000     0.349151   
C282     C      0.245210000000     0.995250000000     0.811170000000     0.350624   
C283     C      0.245160000000     0.935410000000     0.870960000000     0.348713   
C284     C      0.245250000000     0.555040000000     0.871010000000     0.349214   
C285     C      0.245210000000     0.745250000000     0.930940000000     0.349635   
C286     C      0.245210000000     0.745190000000     0.811180000000     0.349576   
C287     C      0.245260000000     0.805040000000     0.870960000000     0.349044   
C288     C      0.245150000000     0.685410000000     0.871010000000     0.348942   
C289     C      0.995250000000     0.495370000000     0.430940000000     0.348991   
C290     C      0.995260000000     0.495330000000     0.311170000000     0.350635   
C291     C      0.055070000000     0.495410000000     0.370990000000     0.348579   
C292     C      0.435440000000     0.495300000000     0.370980000000     0.348947   
C293     C      0.995240000000     0.745130000000     0.311180000000     0.350847   
C294     C      0.995230000000     0.745100000000     0.430950000000     0.34887    
C295     C      0.435420000000     0.744570000000     0.370990000000     0.348828   
C296     C      0.055050000000     0.745660000000     0.371000000000     0.348434   
C297     C      0.245250000000     0.995330000000     0.311170000000     0.345311   
C298     C      0.245250000000     0.995370000000     0.430940000000     0.34528    
C299     C      0.185440000000     0.995300000000     0.370990000000     0.344681   
C300     C      0.305070000000     0.995400000000     0.370980000000     0.344636   
C301     C      0.245230000000     0.745130000000     0.311180000000     0.349821   
C302     C      0.245230000000     0.745100000000     0.430950000000     0.349299   
C303     C      0.185420000000     0.745660000000     0.371000000000     0.349107   
C304     C      0.305050000000     0.744570000000     0.370990000000     0.348904   
C305     C      0.995240000000     0.995330000000     0.681370000000     0.346254   
C306     C      0.995240000000     0.995360000000     0.561600000000     0.344716   
C307     C      0.055050000000     0.994800000000     0.621550000000     0.344248   
C308     C      0.435420000000     0.995890000000     0.621550000000     0.344751   
C309     C      0.995220000000     0.745120000000     0.681370000000     0.350719   
C310     C      0.995220000000     0.745090000000     0.561600000000     0.349059   
C311     C      0.055040000000     0.745160000000     0.621560000000     0.348565   
C312     C      0.435400000000     0.745060000000     0.621560000000     0.348998   
C313     C      0.245230000000     0.995330000000     0.681370000000     0.345436   
C314     C      0.245240000000     0.995360000000     0.561600000000     0.345168   
C315     C      0.185420000000     0.994800000000     0.621550000000     0.344807   
C316     C      0.305050000000     0.995890000000     0.621550000000     0.344855   
C317     C      0.245210000000     0.745120000000     0.681370000000     0.349834   
C318     C      0.245230000000     0.745090000000     0.561600000000     0.349566   
C319     C      0.185400000000     0.745050000000     0.621550000000     0.349295   
C320     C      0.305040000000     0.745160000000     0.621570000000     0.348897   
C321     C      0.385970000000     0.772320000000     0.621580000000    -0.00512715 
C322     C      0.402050000000     0.745070000000     0.621580000000    -0.0817212  
C323     C      0.385920000000     0.717850000000     0.621600000000    -0.00511418 
C324     C      0.354480000000     0.717900000000     0.621590000000    -0.00509429 
C325     C      0.338390000000     0.745160000000     0.621580000000    -0.0817037  
C326     C      0.354520000000     0.772370000000     0.621590000000    -0.00518032 
C327     C      0.104470000000     0.717890000000     0.621580000000    -0.00529299 
C328     C      0.088390000000     0.745150000000     0.621570000000    -0.0807975  
C329     C      0.104520000000     0.772360000000     0.621580000000    -0.00515146 
C330     C      0.135960000000     0.772320000000     0.621560000000    -0.00474506 
C331     C      0.152050000000     0.745060000000     0.621570000000    -0.0818312  
C332     C      0.135920000000     0.717850000000     0.621590000000    -0.00471856 
C333     C      0.385970000000     0.523290000000     0.622010000000    -0.00502327 
C334     C      0.402070000000     0.996040000000     0.621560000000    -0.0853522  
C335     C      0.385950000000     0.968820000000     0.621130000000    -0.00510246 
C336     C      0.354530000000     0.968820000000     0.621130000000    -0.00516054 
C337     C      0.338410000000     0.996040000000     0.621570000000    -0.0852636  
C338     C      0.354500000000     0.523290000000     0.622010000000    -0.00506601 
C339     C      0.104530000000     0.521870000000     0.621140000000    -0.00536864 
C340     C      0.088410000000     0.994650000000     0.621560000000    -0.0843464  
C341     C      0.104500000000     0.967400000000     0.621990000000    -0.00504864 
C342     C      0.135980000000     0.967400000000     0.621990000000    -0.00455605 
C343     C      0.152070000000     0.994650000000     0.621560000000    -0.0854327  
C344     C      0.135950000000     0.521870000000     0.621140000000    -0.00487399 
C345     C      0.245310000000     0.772330000000     0.480520000000    -0.00501799 
C346     C      0.245230000000     0.745090000000     0.464380000000    -0.0813719  
C347     C      0.245160000000     0.717860000000     0.480520000000    -0.00492932 
C348     C      0.245140000000     0.717860000000     0.512030000000    -0.00482495 
C349     C      0.245230000000     0.745090000000     0.528170000000    -0.0815586  
C350     C      0.245320000000     0.772320000000     0.512030000000    -0.00478565 
C351     C      0.244990000000     0.968140000000     0.480510000000    -0.0047169  
C352     C      0.245250000000     0.995370000000     0.464370000000    -0.0851902  
C353     C      0.245520000000     0.522600000000     0.480510000000    -0.00488156 
C354     C      0.245510000000     0.522600000000     0.512030000000    -0.00491933 
C355     C      0.245250000000     0.995370000000     0.528170000000    -0.0850752  
C356     C      0.244980000000     0.968140000000     0.512030000000    -0.00480662 
C357     C      0.494960000000     0.717860000000     0.480520000000    -0.00499915 
C358     C      0.995230000000     0.745090000000     0.464380000000    -0.0817875  
C359     C      0.995490000000     0.772320000000     0.480520000000    -0.00527526 
C360     C      0.995490000000     0.772320000000     0.512030000000    -0.00516489 
C361     C      0.995220000000     0.745090000000     0.528170000000    -0.0819261  
C362     C      0.494950000000     0.717860000000     0.512030000000    -0.00487222 
C363     C      0.385950000000     0.771630000000     0.371420000000    -0.00530163 
C364     C      0.402060000000     0.744420000000     0.370980000000    -0.0815528  
C365     C      0.385970000000     0.717170000000     0.370540000000    -0.00512711 
C366     C      0.354500000000     0.717170000000     0.370540000000    -0.00497428 
C367     C      0.338400000000     0.744420000000     0.370980000000    -0.0817212  
C368     C      0.354520000000     0.771630000000     0.371420000000    -0.00520192 
C369     C      0.104520000000     0.718590000000     0.371410000000    -0.00534691 
C370     C      0.088410000000     0.745810000000     0.370990000000    -0.0806933  
C371     C      0.104500000000     0.773050000000     0.370560000000    -0.00509804 
C372     C      0.135970000000     0.773050000000     0.370560000000    -0.00466982 
C373     C      0.152060000000     0.745810000000     0.370990000000    -0.0816782  
C374     C      0.135950000000     0.718590000000     0.371410000000    -0.00489927 
C375     C      0.495330000000     0.522600000000     0.480510000000    -0.00496143 
C376     C      0.995240000000     0.495370000000     0.464370000000    -0.0818379  
C377     C      0.995160000000     0.968130000000     0.480510000000    -0.0050996  
C378     C      0.995160000000     0.968130000000     0.512030000000    -0.00516396 
C379     C      0.995240000000     0.995370000000     0.528170000000    -0.0854651  
C380     C      0.495320000000     0.522600000000     0.512030000000    -0.00491056 
C381     C      0.354550000000     0.522610000000     0.370940000000    -0.00516945 
C382     C      0.338430000000     0.495390000000     0.370960000000    -0.0816251  
C383     C      0.354510000000     0.968140000000     0.370970000000    -0.00500803 
C384     C      0.385960000000     0.968090000000     0.370960000000    -0.00510214 
C385     C      0.402080000000     0.495300000000     0.370960000000    -0.081638   
C386     C      0.386000000000     0.522560000000     0.370960000000    -0.00511023 
C387     C      0.104550000000     0.522610000000     0.370960000000    -0.00516823 
C388     C      0.088430000000     0.495400000000     0.370970000000    -0.0807675  
C389     C      0.104510000000     0.968140000000     0.370980000000    -0.0051086  
C390     C      0.135960000000     0.968100000000     0.370970000000    -0.00462945 
C391     C      0.152080000000     0.495310000000     0.370970000000    -0.0816049  
C392     C      0.136000000000     0.522570000000     0.370970000000    -0.0049181  
C393     C      0.225730000000     0.764250000000     0.762020000000    -0.00352467 
C394     C      0.245210000000     0.745170000000     0.778000000000    -0.0820201  
C395     C      0.264680000000     0.726070000000     0.762050000000    -0.00353221 
C396     C      0.264300000000     0.725670000000     0.730530000000    -0.00339404 
C397     C      0.245210000000     0.745140000000     0.714550000000    -0.0822049  
C398     C      0.226120000000     0.764620000000     0.730500000000    -0.00333205 
C399     C      0.264770000000     0.976260000000     0.762020000000    -0.00249094 
C400     C      0.245220000000     0.995270000000     0.778000000000    -0.0874718  
C401     C      0.225670000000     0.514300000000     0.762040000000    -0.00339624 
C402     C      0.226060000000     0.514710000000     0.730520000000    -0.00336255 
C403     C      0.245230000000     0.995310000000     0.714540000000    -0.085521   
C404     C      0.264390000000     0.975900000000     0.730500000000    -0.00371942 
C405     C      0.217950000000     0.885930000000     0.870920000000    -0.00521614 
C406     C      0.245170000000     0.902050000000     0.870940000000    -0.0815298  
C407     C      0.272420000000     0.885970000000     0.870940000000    -0.00519771 
C408     C      0.272470000000     0.854520000000     0.870930000000    -0.00517585 
C409     C      0.245250000000     0.838390000000     0.870940000000    -0.081737   
C410     C      0.218000000000     0.854480000000     0.870930000000    -0.00500315 
C411     C      0.272460000000     0.604520000000     0.870990000000    -0.00501593 
C412     C      0.245250000000     0.588400000000     0.871000000000    -0.0817224  
C413     C      0.217990000000     0.604480000000     0.871000000000    -0.00516804 
C414     C      0.217950000000     0.635930000000     0.870990000000    -0.0051433  
C415     C      0.245160000000     0.652050000000     0.871000000000    -0.0815885  
C416     C      0.272420000000     0.635970000000     0.871000000000    -0.00520641 
C417     C      0.475830000000     0.764330000000     0.762030000000    -0.00343352 
C418     C      0.995240000000     0.745180000000     0.778000000000    -0.085454   
C419     C      0.014640000000     0.726000000000     0.762050000000     0.000185796
C420     C      0.014250000000     0.725600000000     0.730530000000     0.00166861 
C421     C      0.995220000000     0.745140000000     0.714550000000    -0.0874182  
C422     C      0.476210000000     0.764700000000     0.730510000000    -0.00342083 
C423     C      0.475770000000     0.976190000000     0.762020000000    -0.00250808 
C424     C      0.995250000000     0.995270000000     0.778000000000    -0.0906393  
C425     C      0.014720000000     0.514370000000     0.762040000000     0.00015354 
C426     C      0.014330000000     0.514780000000     0.730520000000     0.00174837 
C427     C      0.995240000000     0.995310000000     0.714550000000    -0.0907635  
C428     C      0.476150000000     0.975830000000     0.730500000000    -0.0037086  
C429     C      0.468730000000     0.885940000000     0.871380000000    -0.00530882 
C430     C      0.995950000000     0.902050000000     0.870950000000    -0.0851644  
C431     C      0.023200000000     0.885960000000     0.870510000000    -0.00112076 
C432     C      0.023200000000     0.854490000000     0.870510000000    -0.00100806 
C433     C      0.995950000000     0.838390000000     0.870950000000    -0.0853543  
C434     C      0.468730000000     0.854510000000     0.871380000000    -0.0052063  
C435     C      0.021780000000     0.604510000000     0.871440000000    -0.00129282 
C436     C      0.994560000000     0.588400000000     0.871020000000    -0.0852995  
C437     C      0.467310000000     0.604490000000     0.870580000000    -0.00505995 
C438     C      0.467310000000     0.635960000000     0.870580000000    -0.00505133 
C439     C      0.994560000000     0.652050000000     0.871020000000    -0.0853021  
C440     C      0.021780000000     0.635930000000     0.871440000000    -0.00129109 
C441     C      0.225750000000     0.726080000000     0.230500000000    -0.00347952 
C442     C      0.245230000000     0.745190000000     0.214550000000    -0.0819902  
C443     C      0.264700000000     0.764270000000     0.230520000000    -0.00345223 
C444     C      0.264320000000     0.764630000000     0.262040000000    -0.00332057 
C445     C      0.245230000000     0.745150000000     0.278000000000    -0.0821111  
C446     C      0.226140000000     0.725680000000     0.262020000000    -0.00332794 
C447     C      0.272450000000     0.745340000000     0.012030000000    -0.00504162 
C448     C      0.245210000000     0.745260000000     0.028170000000    -0.0814636  
C449     C      0.217980000000     0.745180000000     0.012030000000    -0.00490266 
C450     C      0.217970000000     0.745180000000     0.980510000000    -0.00495945 
C451     C      0.245210000000     0.745260000000     0.964370000000    -0.081568   
C452     C      0.272440000000     0.745340000000     0.980510000000    -0.00485907 
C453     C      0.225830000000     0.514460000000     0.230500000000    -0.00344108 
C454     C      0.245230000000     0.995280000000     0.214540000000    -0.0874001  
C455     C      0.264640000000     0.976130000000     0.230520000000    -0.0024684  
C456     C      0.264260000000     0.975760000000     0.262040000000    -0.00379459 
C457     C      0.245250000000     0.995320000000     0.277990000000    -0.0853917  
C458     C      0.226230000000     0.514860000000     0.262020000000    -0.00336877 
C459     C      0.272440000000     0.495460000000     0.012030000000    -0.00500842 
C460     C      0.245210000000     0.995200000000     0.028170000000    -0.0818041  
C461     C      0.217970000000     0.994930000000     0.012030000000    -0.00527106 
C462     C      0.217970000000     0.994930000000     0.980510000000    -0.00522668 
C463     C      0.245210000000     0.995200000000     0.964370000000    -0.0819019  
C464     C      0.272440000000     0.495460000000     0.980510000000    -0.00493461 
C465     C      0.217280000000     0.854500000000     0.122030000000    -0.00496129 
C466     C      0.244520000000     0.838400000000     0.121590000000    -0.0817652  
C467     C      0.271740000000     0.854520000000     0.121170000000    -0.00521189 
C468     C      0.271740000000     0.885940000000     0.121170000000    -0.00529966 
C469     C      0.244520000000     0.902060000000     0.121590000000    -0.0816179  
C470     C      0.217280000000     0.885970000000     0.122030000000    -0.00503475 
C471     C      0.273160000000     0.604490000000     0.121960000000    -0.00500794 
C472     C      0.245910000000     0.588400000000     0.121530000000    -0.0816877  
C473     C      0.218700000000     0.604520000000     0.121100000000    -0.00520586 
C474     C      0.218700000000     0.635940000000     0.121100000000    -0.00523887 
C475     C      0.245910000000     0.652060000000     0.121530000000    -0.0815906  
C476     C      0.273160000000     0.635970000000     0.121960000000    -0.00506253 
C477     C      0.475700000000     0.764190000000     0.230520000000    -0.00342297 
C478     C      0.995260000000     0.745190000000     0.214550000000    -0.0853955  
C479     C      0.014800000000     0.726160000000     0.230510000000     0.000180795
C480     C      0.014410000000     0.725750000000     0.262030000000     0.00170085 
C481     C      0.995240000000     0.745150000000     0.278000000000    -0.0874947  
C482     C      0.476080000000     0.764560000000     0.262040000000    -0.00337581 
C483     C      0.022500000000     0.745530000000     0.012030000000    -0.000969674
C484     C      0.995270000000     0.745260000000     0.028180000000    -0.0851554  
C485     C      0.468040000000     0.744990000000     0.012040000000    -0.00484483 
C486     C      0.468030000000     0.745000000000     0.980520000000    -0.00506507 
C487     C      0.995270000000     0.745260000000     0.964380000000    -0.0850865  
C488     C      0.022500000000     0.745520000000     0.980520000000    -0.000986905
C489     C      0.014750000000     0.976200000000     0.230520000000     0.00101729 
C490     C      0.995270000000     0.495280000000     0.214550000000    -0.0854334  
C491     C      0.475790000000     0.514380000000     0.230500000000    -0.00348882 
C492     C      0.476180000000     0.514790000000     0.262020000000    -0.00339043 
C493     C      0.995270000000     0.495320000000     0.278000000000    -0.0876127  
C494     C      0.014360000000     0.975840000000     0.262040000000     0.00133768 
C495     C      0.968030000000     0.995110000000     0.012040000000    -0.00510607 
C496     C      0.995270000000     0.995200000000     0.028170000000    -0.0855115  
C497     C      0.022500000000     0.495280000000     0.012030000000    -0.000956665
C498     C      0.022500000000     0.495270000000     0.980520000000    -0.00103094 
C499     C      0.995260000000     0.995200000000     0.964380000000    -0.0854477  
C500     C      0.968030000000     0.995120000000     0.980520000000    -0.00510127 
C501     C      0.468010000000     0.885940000000     0.121620000000    -0.00513881 
C502     C      0.995220000000     0.902060000000     0.121610000000    -0.0851643  
C503     C      0.022480000000     0.885980000000     0.121610000000    -0.00127378 
C504     C      0.022520000000     0.854530000000     0.121620000000    -0.00100457 
C505     C      0.995310000000     0.838400000000     0.121610000000    -0.0854525  
C506     C      0.468050000000     0.854490000000     0.121610000000    -0.00519752 
C507     C      0.022480000000     0.635980000000     0.121550000000    -0.00121617 
C508     C      0.995220000000     0.652060000000     0.121550000000    -0.0852377  
C509     C      0.468010000000     0.635930000000     0.121560000000    -0.00513655 
C510     C      0.468060000000     0.604490000000     0.121540000000    -0.0050522  
C511     C      0.995310000000     0.588400000000     0.121550000000    -0.0853546  
C512     C      0.022530000000     0.604530000000     0.121560000000    -0.00117679 
C513     C      0.995270000000     0.995260000000     0.181370000000     0.346224   
C514     C      0.495270000000     0.495210000000     0.061600000000     0.349232   
C515     C      0.495320000000     0.055050000000     0.121540000000     0.348417   
C516     C      0.995210000000     0.435420000000     0.121590000000     0.344651   
C517     C      0.495270000000     0.245250000000     0.061600000000     0.349354   
C518     C      0.995260000000     0.245200000000     0.181370000000     0.3454     
C519     C      0.495220000000     0.185420000000     0.121540000000     0.34929    
C520     C      0.495310000000     0.305050000000     0.121580000000     0.34902    
C521     C      0.745230000000     0.495260000000     0.181360000000     0.349896   
C522     C      0.745210000000     0.495210000000     0.061600000000     0.349416   
C523     C      0.745760000000     0.055050000000     0.121530000000     0.348262   
C524     C      0.744680000000     0.435420000000     0.121570000000     0.349149   
C525     C      0.745210000000     0.245250000000     0.061600000000     0.349489   
C526     C      0.745220000000     0.245200000000     0.181370000000     0.349624   
C527     C      0.745760000000     0.185420000000     0.121530000000     0.349075   
C528     C      0.744670000000     0.305050000000     0.121570000000     0.349116   
C529     C      0.495260000000     0.495200000000     0.930950000000     0.349407   
C530     C      0.495250000000     0.495250000000     0.811180000000     0.349765   
C531     C      0.494710000000     0.055040000000     0.871020000000     0.348475   
C532     C      0.495800000000     0.435410000000     0.870970000000     0.349173   
C533     C      0.495260000000     0.245250000000     0.930950000000     0.349399   
C534     C      0.495250000000     0.245200000000     0.811180000000     0.349661   
C535     C      0.495800000000     0.305040000000     0.870970000000     0.349083   
C536     C      0.494710000000     0.185410000000     0.871020000000     0.349179   
C537     C      0.745200000000     0.495200000000     0.930940000000     0.34961    
C538     C      0.745210000000     0.495250000000     0.811170000000     0.349791   
C539     C      0.745160000000     0.435410000000     0.870960000000     0.348975   
C540     C      0.745260000000     0.055040000000     0.871010000000     0.348603   
C541     C      0.745210000000     0.245250000000     0.930940000000     0.349417   
C542     C      0.745210000000     0.245200000000     0.811180000000     0.34985    
C543     C      0.745260000000     0.305040000000     0.870960000000     0.348947   
C544     C      0.745150000000     0.185410000000     0.871010000000     0.349296   
C545     C      0.495250000000     0.995370000000     0.430940000000     0.345352   
C546     C      0.495260000000     0.995330000000     0.311170000000     0.345326   
C547     C      0.555070000000     0.995400000000     0.370990000000     0.344882   
C548     C      0.935440000000     0.995300000000     0.370980000000     0.344369   
C549     C      0.495240000000     0.245130000000     0.311180000000     0.349707   
C550     C      0.495230000000     0.245100000000     0.430950000000     0.349295   
C551     C      0.935420000000     0.244570000000     0.370990000000     0.34862    
C552     C      0.555050000000     0.245660000000     0.371000000000     0.349091   
C553     C      0.745250000000     0.495330000000     0.311170000000     0.349766   
C554     C      0.745260000000     0.495370000000     0.430940000000     0.349349   
C555     C      0.685440000000     0.495300000000     0.370990000000     0.348941   
C556     C      0.805070000000     0.495400000000     0.370980000000     0.348944   
C557     C      0.745240000000     0.245130000000     0.311180000000     0.349798   
C558     C      0.745240000000     0.245100000000     0.430950000000     0.349284   
C559     C      0.685420000000     0.245660000000     0.371000000000     0.349154   
C560     C      0.805050000000     0.244570000000     0.370990000000     0.348812   
C561     C      0.495240000000     0.495330000000     0.681370000000     0.349865   
C562     C      0.495240000000     0.495360000000     0.561600000000     0.3495     
C563     C      0.555050000000     0.494800000000     0.621550000000     0.349209   
C564     C      0.935420000000     0.495890000000     0.621550000000     0.348849   
C565     C      0.495220000000     0.245130000000     0.681370000000     0.349869   
C566     C      0.495220000000     0.245090000000     0.561600000000     0.349481   
C567     C      0.555040000000     0.245150000000     0.621560000000     0.349166   
C568     C      0.935400000000     0.245060000000     0.621560000000     0.348691   
C569     C      0.745230000000     0.495330000000     0.681370000000     0.349893   
C570     C      0.745240000000     0.495360000000     0.561600000000     0.349496   
C571     C      0.685420000000     0.494800000000     0.621550000000     0.34908    
C572     C      0.805050000000     0.495890000000     0.621550000000     0.349192   
C573     C      0.745210000000     0.245120000000     0.681370000000     0.349817   
C574     C      0.745230000000     0.245090000000     0.561600000000     0.349528   
C575     C      0.685400000000     0.245050000000     0.621550000000     0.349172   
C576     C      0.805040000000     0.245160000000     0.621570000000     0.348929   
C577     C      0.885960000000     0.272320000000     0.621580000000    -0.00513891 
C578     C      0.902050000000     0.245070000000     0.621580000000    -0.0816461  
C579     C      0.885920000000     0.217850000000     0.621600000000    -0.00515065 
C580     C      0.854470000000     0.217900000000     0.621590000000    -0.00503061 
C581     C      0.838390000000     0.245150000000     0.621580000000    -0.0817075  
C582     C      0.854520000000     0.272370000000     0.621590000000    -0.00520352 
C583     C      0.604470000000     0.217890000000     0.621580000000    -0.0051825  
C584     C      0.588390000000     0.245150000000     0.621570000000    -0.0817725  
C585     C      0.604520000000     0.272360000000     0.621580000000    -0.00505632 
C586     C      0.635960000000     0.272320000000     0.621560000000    -0.00511002 
C587     C      0.652050000000     0.245060000000     0.621570000000    -0.0817939  
C588     C      0.635920000000     0.217850000000     0.621590000000    -0.005054   
C589     C      0.885980000000     0.023290000000     0.622010000000    -0.00104427 
C590     C      0.902070000000     0.496040000000     0.621560000000    -0.0817115  
C591     C      0.885950000000     0.468830000000     0.621130000000    -0.00522543 
C592     C      0.854530000000     0.468830000000     0.621130000000    -0.00525326 
C593     C      0.838410000000     0.496040000000     0.621570000000    -0.0816768  
C594     C      0.854500000000     0.023290000000     0.622010000000    -0.0010589  
C595     C      0.604530000000     0.021870000000     0.621140000000    -0.00129636 
C596     C      0.588410000000     0.494650000000     0.621560000000    -0.0816646  
C597     C      0.604500000000     0.467400000000     0.621990000000    -0.00506374 
C598     C      0.635970000000     0.467400000000     0.621990000000    -0.00500168 
C599     C      0.652070000000     0.494650000000     0.621560000000    -0.081755   
C600     C      0.635950000000     0.021870000000     0.621140000000    -0.00124916 
C601     C      0.745310000000     0.272320000000     0.480520000000    -0.00497175 
C602     C      0.745230000000     0.245090000000     0.464380000000    -0.0814607  
C603     C      0.745150000000     0.217860000000     0.480520000000    -0.00493731 
C604     C      0.745150000000     0.217860000000     0.512030000000    -0.00487766 
C605     C      0.745230000000     0.245090000000     0.528170000000    -0.0815749  
C606     C      0.745310000000     0.272320000000     0.512030000000    -0.00488801 
C607     C      0.744990000000     0.468140000000     0.480510000000    -0.00493136 
C608     C      0.745250000000     0.495370000000     0.464370000000    -0.0814892  
C609     C      0.745520000000     0.022600000000     0.480510000000    -0.000886156
C610     C      0.745510000000     0.022600000000     0.512030000000    -0.000999078
C611     C      0.745250000000     0.495370000000     0.528170000000    -0.0815005  
C612     C      0.744990000000     0.468140000000     0.512030000000    -0.00494164 
C613     C      0.994960000000     0.217860000000     0.480520000000    -0.00523009 
C614     C      0.495230000000     0.245090000000     0.464380000000    -0.0814695  
C615     C      0.495490000000     0.272320000000     0.480520000000    -0.00499459 
C616     C      0.495490000000     0.272320000000     0.512030000000    -0.00490159 
C617     C      0.495220000000     0.245090000000     0.528170000000    -0.0815797  
C618     C      0.994950000000     0.217860000000     0.512030000000    -0.00518057 
C619     C      0.885950000000     0.271630000000     0.371420000000    -0.00526968 
C620     C      0.902070000000     0.244410000000     0.370980000000    -0.0816233  
C621     C      0.885970000000     0.217170000000     0.370540000000    -0.00501959 
C622     C      0.854500000000     0.217170000000     0.370540000000    -0.00507066 
C623     C      0.838410000000     0.244410000000     0.370980000000    -0.0815461  
C624     C      0.854520000000     0.271630000000     0.371420000000    -0.0053069  
C625     C      0.604530000000     0.218590000000     0.371410000000    -0.00524706 
C626     C      0.588410000000     0.245810000000     0.370990000000    -0.0816563  
C627     C      0.604500000000     0.273050000000     0.370560000000    -0.00503907 
C628     C      0.635970000000     0.273050000000     0.370560000000    -0.00496488 
C629     C      0.652070000000     0.245810000000     0.370990000000    -0.0817828  
C630     C      0.635950000000     0.218590000000     0.371410000000    -0.00517539 
C631     C      0.995330000000     0.022600000000     0.480510000000    -0.00122707 
C632     C      0.495240000000     0.995370000000     0.464370000000    -0.0852203  
C633     C      0.495160000000     0.468140000000     0.480510000000    -0.00495514 
C634     C      0.495160000000     0.468140000000     0.512030000000    -0.00494136 
C635     C      0.495240000000     0.495370000000     0.528170000000    -0.0815432  
C636     C      0.995320000000     0.022600000000     0.512030000000    -0.00125376 
C637     C      0.854550000000     0.022600000000     0.370940000000    -0.00106846 
C638     C      0.838430000000     0.995390000000     0.370960000000    -0.0852857  
C639     C      0.854510000000     0.468140000000     0.370970000000    -0.00515135 
C640     C      0.885960000000     0.468090000000     0.370960000000    -0.00523445 
C641     C      0.902080000000     0.995300000000     0.370960000000    -0.0851856  
C642     C      0.886000000000     0.022560000000     0.370960000000    -0.0012143  
C643     C      0.604550000000     0.022610000000     0.370960000000    -0.00107719 
C644     C      0.588430000000     0.995400000000     0.370970000000    -0.0853525  
C645     C      0.604510000000     0.468140000000     0.370980000000    -0.00509552 
C646     C      0.635960000000     0.468100000000     0.370970000000    -0.00515168 
C647     C      0.652080000000     0.995310000000     0.370970000000    -0.0852424  
C648     C      0.636000000000     0.022570000000     0.370970000000    -0.00127699 
C649     C      0.725730000000     0.264250000000     0.762020000000    -0.00349875 
C650     C      0.745210000000     0.245170000000     0.778000000000    -0.0821295  
C651     C      0.764680000000     0.226070000000     0.762050000000    -0.00345511 
C652     C      0.764300000000     0.225670000000     0.730530000000    -0.00340549 
C653     C      0.745210000000     0.245140000000     0.714550000000    -0.0821893  
C654     C      0.726120000000     0.264620000000     0.730500000000    -0.0033736  
C655     C      0.764770000000     0.476260000000     0.762020000000    -0.00341642 
C656     C      0.745220000000     0.495270000000     0.778000000000    -0.0821901  
C657     C      0.725670000000     0.014300000000     0.762040000000     0.00169165 
C658     C      0.726060000000     0.014710000000     0.730520000000     0.000188867
C659     C      0.745230000000     0.495310000000     0.714540000000    -0.0822539  
C660     C      0.764390000000     0.475900000000     0.730500000000    -0.00335974 
C661     C      0.717960000000     0.385930000000     0.870920000000    -0.00506225 
C662     C      0.745170000000     0.402050000000     0.870940000000    -0.0816723  
C663     C      0.772420000000     0.385970000000     0.870940000000    -0.00512517 
C664     C      0.772470000000     0.354520000000     0.870930000000    -0.00522546 
C665     C      0.745260000000     0.338400000000     0.870940000000    -0.0816035  
C666     C      0.718000000000     0.354480000000     0.870930000000    -0.00516402 
C667     C      0.772460000000     0.104520000000     0.870990000000    -0.00517577 
C668     C      0.745250000000     0.088400000000     0.871000000000    -0.0807282  
C669     C      0.717990000000     0.104480000000     0.871000000000    -0.00526345 
C670     C      0.717950000000     0.135930000000     0.870990000000    -0.00477663 
C671     C      0.745160000000     0.152050000000     0.871000000000    -0.081725   
C672     C      0.772420000000     0.135970000000     0.871000000000    -0.00477831 
C673     C      0.975830000000     0.264330000000     0.762030000000    -0.00380175 
C674     C      0.495240000000     0.245180000000     0.778000000000    -0.0820291  
C675     C      0.514640000000     0.226000000000     0.762050000000    -0.00345718 
C676     C      0.514250000000     0.225600000000     0.730530000000    -0.00333329 
C677     C      0.495230000000     0.245140000000     0.714550000000    -0.0821551  
C678     C      0.976210000000     0.264690000000     0.730510000000    -0.00240986 
C679     C      0.975770000000     0.476190000000     0.762020000000    -0.00384762 
C680     C      0.495250000000     0.495270000000     0.778000000000    -0.0820701  
C681     C      0.514720000000     0.014370000000     0.762040000000     0.00167856 
C682     C      0.514330000000     0.014780000000     0.730520000000     0.000223314
C683     C      0.495240000000     0.495310000000     0.714550000000    -0.0821933  
C684     C      0.976150000000     0.475830000000     0.730500000000    -0.00236855 
C685     C      0.968730000000     0.385940000000     0.871380000000    -0.00510736 
C686     C      0.495950000000     0.402060000000     0.870950000000    -0.0817748  
C687     C      0.523200000000     0.385960000000     0.870510000000    -0.00503293 
C688     C      0.523200000000     0.354490000000     0.870510000000    -0.00504614 
C689     C      0.495950000000     0.338390000000     0.870950000000    -0.0817535  
C690     C      0.968730000000     0.354510000000     0.871380000000    -0.00513392 
C691     C      0.521780000000     0.104510000000     0.871440000000    -0.00531501 
C692     C      0.494560000000     0.088390000000     0.871020000000    -0.0807832  
C693     C      0.967310000000     0.104490000000     0.870580000000    -0.00500086 
C694     C      0.967310000000     0.135960000000     0.870580000000    -0.00461825 
C695     C      0.494560000000     0.152050000000     0.871020000000    -0.0816651  
C696     C      0.521780000000     0.135940000000     0.871440000000    -0.00493167 
C697     C      0.725750000000     0.226080000000     0.230500000000    -0.00344399 
C698     C      0.745230000000     0.245180000000     0.214550000000    -0.0820301  
C699     C      0.764700000000     0.264260000000     0.230520000000    -0.00339817 
C700     C      0.764320000000     0.264630000000     0.262040000000    -0.00334459 
C701     C      0.745240000000     0.245150000000     0.278000000000    -0.0820945  
C702     C      0.726140000000     0.225680000000     0.262020000000    -0.00336206 
C703     C      0.772440000000     0.245340000000     0.012030000000    -0.00488863 
C704     C      0.745210000000     0.245260000000     0.028170000000    -0.0814762  
C705     C      0.717980000000     0.245180000000     0.012030000000    -0.00487043 
C706     C      0.717980000000     0.245180000000     0.980510000000    -0.00490547 
C707     C      0.745210000000     0.245260000000     0.964370000000    -0.0814426  
C708     C      0.772440000000     0.245340000000     0.980510000000    -0.00489553 
C709     C      0.725830000000     0.014460000000     0.230500000000     0.00164564 
C710     C      0.745230000000     0.495280000000     0.214540000000    -0.0821064  
C711     C      0.764640000000     0.476130000000     0.230520000000    -0.00340937 
C712     C      0.764260000000     0.475760000000     0.262040000000    -0.00341081 
C713     C      0.745250000000     0.495320000000     0.277990000000    -0.0821198  
C714     C      0.726230000000     0.014860000000     0.262020000000     0.000202214
C715     C      0.772440000000     0.995460000000     0.012030000000    -0.00527005 
C716     C      0.745210000000     0.495200000000     0.028170000000    -0.081465   
C717     C      0.717970000000     0.494930000000     0.012030000000    -0.00499658 
C718     C      0.717970000000     0.494930000000     0.980510000000    -0.00492283 
C719     C      0.745200000000     0.495200000000     0.964370000000    -0.0815604  
C720     C      0.772440000000     0.995460000000     0.980510000000    -0.0052262  
C721     C      0.717280000000     0.354500000000     0.122030000000    -0.00496032 
C722     C      0.744520000000     0.338400000000     0.121590000000    -0.0817966  
C723     C      0.771740000000     0.354520000000     0.121170000000    -0.0052013  
C724     C      0.771740000000     0.385940000000     0.121170000000    -0.00528475 
C725     C      0.744520000000     0.402060000000     0.121590000000    -0.0816785  
C726     C      0.717280000000     0.385970000000     0.122030000000    -0.00502676 
C727     C      0.773160000000     0.104500000000     0.121960000000    -0.00510661 
C728     C      0.745920000000     0.088400000000     0.121530000000    -0.080706   
C729     C      0.718700000000     0.104520000000     0.121100000000    -0.00534543 
C730     C      0.718700000000     0.135940000000     0.121100000000    -0.00492038 
C731     C      0.745920000000     0.152060000000     0.121530000000    -0.0816231  
C732     C      0.773160000000     0.135970000000     0.121960000000    -0.00470793 
C733     C      0.975700000000     0.264190000000     0.230520000000    -0.00378046 
C734     C      0.495260000000     0.245190000000     0.214550000000    -0.0821388  
C735     C      0.514800000000     0.226160000000     0.230510000000    -0.00336421 
C736     C      0.514410000000     0.225750000000     0.262030000000    -0.0034452  
C737     C      0.495240000000     0.245150000000     0.278000000000    -0.082057   
C738     C      0.976080000000     0.264560000000     0.262040000000    -0.00248019 
C739     C      0.522500000000     0.245530000000     0.012030000000    -0.00487241 
C740     C      0.495270000000     0.245260000000     0.028180000000    -0.0815574  
C741     C      0.968030000000     0.245000000000     0.012040000000    -0.00478274 
C742     C      0.968030000000     0.245000000000     0.980520000000    -0.00484524 
C743     C      0.495270000000     0.245260000000     0.964380000000    -0.081393   
C744     C      0.522500000000     0.245520000000     0.980520000000    -0.00495039 
C745     C      0.514750000000     0.476200000000     0.230520000000    -0.00351225 
C746     C      0.495270000000     0.995280000000     0.214550000000    -0.0874701  
C747     C      0.975790000000     0.014380000000     0.230500000000     0.00122649 
C748     C      0.976180000000     0.014790000000     0.262020000000     0.00113084 
C749     C      0.495270000000     0.995320000000     0.278000000000    -0.0855789  
C750     C      0.514360000000     0.475840000000     0.262040000000    -0.0033734  
C751     C      0.468030000000     0.495110000000     0.012040000000    -0.00502333 
C752     C      0.495260000000     0.495200000000     0.028170000000    -0.0814269  
C753     C      0.522500000000     0.995280000000     0.012030000000    -0.00530827 
C754     C      0.522500000000     0.995270000000     0.980520000000    -0.00523338 
C755     C      0.495260000000     0.495190000000     0.964380000000    -0.0815271  
C756     C      0.468030000000     0.495120000000     0.980520000000    -0.00490703 
C757     C      0.968010000000     0.385940000000     0.121620000000    -0.00508634 
C758     C      0.495220000000     0.402060000000     0.121610000000    -0.0817721  
C759     C      0.522470000000     0.385980000000     0.121610000000    -0.0050603  
C760     C      0.522520000000     0.354530000000     0.121620000000    -0.00512358 
C761     C      0.495310000000     0.338400000000     0.121610000000    -0.0817182  
C762     C      0.968050000000     0.354490000000     0.121610000000    -0.00498179 
C763     C      0.522480000000     0.135980000000     0.121550000000    -0.00476282 
C764     C      0.495230000000     0.152060000000     0.121550000000    -0.0817368  
C765     C      0.968010000000     0.135930000000     0.121560000000    -0.00469908 
C766     C      0.968060000000     0.104490000000     0.121540000000    -0.005013   
C767     C      0.495310000000     0.088400000000     0.121550000000    -0.0807546  
C768     C      0.522530000000     0.104530000000     0.121560000000    -0.00529628 
C769     C      0.995270000000     0.495260000000     0.181370000000     0.345359   
C770     C      0.495270000000     0.995210000000     0.061600000000     0.348788   
C771     C      0.495320000000     0.555050000000     0.121540000000     0.349028   
C772     C      0.995210000000     0.935420000000     0.121590000000     0.344367   
C773     C      0.495270000000     0.745250000000     0.061600000000     0.349344   
C774     C      0.995260000000     0.745210000000     0.181370000000     0.345394   
C775     C      0.495220000000     0.685420000000     0.121540000000     0.349242   
C776     C      0.495310000000     0.805050000000     0.121580000000     0.349005   
C777     C      0.745230000000     0.995260000000     0.181360000000     0.350741   
C778     C      0.745210000000     0.995210000000     0.061600000000     0.348966   
C779     C      0.745760000000     0.555050000000     0.121530000000     0.348857   
C780     C      0.744680000000     0.935420000000     0.121570000000     0.34897    
C781     C      0.745210000000     0.745250000000     0.061600000000     0.349479   
C782     C      0.745220000000     0.745210000000     0.181370000000     0.349626   
C783     C      0.745760000000     0.685420000000     0.121530000000     0.348999   
C784     C      0.744670000000     0.805050000000     0.121570000000     0.349126   
C785     C      0.495260000000     0.995200000000     0.930950000000     0.348965   
C786     C      0.495250000000     0.995250000000     0.811180000000     0.350625   
C787     C      0.494710000000     0.555040000000     0.871020000000     0.349031   
C788     C      0.495800000000     0.935410000000     0.870970000000     0.348822   
C789     C      0.495260000000     0.745250000000     0.930950000000     0.349394   
C790     C      0.495250000000     0.745200000000     0.811180000000     0.349675   
C791     C      0.495800000000     0.805040000000     0.870970000000     0.349112   
C792     C      0.494710000000     0.685410000000     0.871020000000     0.349039   
C793     C      0.745200000000     0.995200000000     0.930940000000     0.349166   
C794     C      0.745210000000     0.995250000000     0.811170000000     0.350644   
C795     C      0.745160000000     0.935410000000     0.870960000000     0.348743   
C796     C      0.745260000000     0.555040000000     0.871010000000     0.349221   
C797     C      0.745210000000     0.745250000000     0.930940000000     0.349404   
C798     C      0.745210000000     0.745190000000     0.811180000000     0.349854   
C799     C      0.745260000000     0.805040000000     0.870960000000     0.349052   
C800     C      0.745150000000     0.685410000000     0.871010000000     0.349214   
C801     C      0.495250000000     0.495370000000     0.430940000000     0.349438   
C802     C      0.495260000000     0.495330000000     0.311170000000     0.349791   
C803     C      0.555070000000     0.495410000000     0.370990000000     0.349197   
C804     C      0.935440000000     0.495300000000     0.370980000000     0.348721   
C805     C      0.495240000000     0.745130000000     0.311180000000     0.349984   
C806     C      0.495230000000     0.745100000000     0.430950000000     0.349305   
C807     C      0.935420000000     0.744570000000     0.370990000000     0.348633   
C808     C      0.555050000000     0.745660000000     0.371000000000     0.349109   
C809     C      0.745250000000     0.995330000000     0.311170000000     0.345304   
C810     C      0.745260000000     0.995370000000     0.430940000000     0.345272   
C811     C      0.685440000000     0.995300000000     0.370990000000     0.344601   
C812     C      0.805070000000     0.995400000000     0.370980000000     0.34465    
C813     C      0.745240000000     0.745130000000     0.311180000000     0.349818   
C814     C      0.745240000000     0.745100000000     0.430950000000     0.349284   
C815     C      0.685420000000     0.745660000000     0.371000000000     0.349169   
C816     C      0.805050000000     0.744570000000     0.370990000000     0.348835   
C817     C      0.495240000000     0.995330000000     0.681370000000     0.345395   
C818     C      0.495240000000     0.995360000000     0.561600000000     0.345152   
C819     C      0.555050000000     0.994800000000     0.621550000000     0.344853   
C820     C      0.935420000000     0.995890000000     0.621550000000     0.344534   
C821     C      0.495220000000     0.745120000000     0.681370000000     0.349871   
C822     C      0.495220000000     0.745090000000     0.561600000000     0.3495     
C823     C      0.555040000000     0.745160000000     0.621560000000     0.34918    
C824     C      0.935400000000     0.745060000000     0.621560000000     0.348705   
C825     C      0.745230000000     0.995330000000     0.681370000000     0.345424   
C826     C      0.745240000000     0.995360000000     0.561600000000     0.345156   
C827     C      0.685420000000     0.994800000000     0.621550000000     0.344727   
C828     C      0.805050000000     0.995890000000     0.621550000000     0.344869   
C829     C      0.745210000000     0.745120000000     0.681370000000     0.349832   
C830     C      0.745230000000     0.745090000000     0.561600000000     0.349552   
C831     C      0.685400000000     0.745050000000     0.621550000000     0.349186   
C832     C      0.805040000000     0.745160000000     0.621570000000     0.348943   
C833     C      0.885960000000     0.772320000000     0.621580000000    -0.00513787 
C834     C      0.902050000000     0.745070000000     0.621580000000    -0.0816475  
C835     C      0.885920000000     0.717850000000     0.621600000000    -0.00514779 
C836     C      0.854470000000     0.717900000000     0.621590000000    -0.00507049 
C837     C      0.838390000000     0.745160000000     0.621580000000    -0.0817079  
C838     C      0.854520000000     0.772370000000     0.621590000000    -0.00515917 
C839     C      0.604470000000     0.717890000000     0.621580000000    -0.00517782 
C840     C      0.588390000000     0.745150000000     0.621570000000    -0.0817705  
C841     C      0.604520000000     0.772360000000     0.621580000000    -0.00505401 
C842     C      0.635960000000     0.772320000000     0.621560000000    -0.00509561 
C843     C      0.652050000000     0.745060000000     0.621570000000    -0.0817934  
C844     C      0.635920000000     0.717850000000     0.621590000000    -0.00506101 
C845     C      0.885980000000     0.523290000000     0.622010000000    -0.00504306 
C846     C      0.902070000000     0.996040000000     0.621560000000    -0.0852866  
C847     C      0.885950000000     0.968820000000     0.621130000000    -0.00511748 
C848     C      0.854530000000     0.968820000000     0.621130000000    -0.00514534 
C849     C      0.838410000000     0.996040000000     0.621570000000    -0.0852525  
C850     C      0.854500000000     0.523290000000     0.622010000000    -0.00505941 
C851     C      0.604530000000     0.521870000000     0.621140000000    -0.00525652 
C852     C      0.588410000000     0.994650000000     0.621560000000    -0.0853233  
C853     C      0.604500000000     0.967400000000     0.621990000000    -0.00495506 
C854     C      0.635970000000     0.967400000000     0.621990000000    -0.00489556 
C855     C      0.652070000000     0.994650000000     0.621560000000    -0.0854121  
C856     C      0.635950000000     0.521870000000     0.621140000000    -0.00520818 
C857     C      0.745310000000     0.772330000000     0.480520000000    -0.00505302 
C858     C      0.745230000000     0.745090000000     0.464380000000    -0.0814083  
C859     C      0.745150000000     0.717860000000     0.480520000000    -0.00496415 
C860     C      0.745150000000     0.717860000000     0.512030000000    -0.00485886 
C861     C      0.745230000000     0.745090000000     0.528170000000    -0.0815961  
C862     C      0.745310000000     0.772320000000     0.512030000000    -0.00481935 
C863     C      0.744990000000     0.968140000000     0.480510000000    -0.00475103 
C864     C      0.745250000000     0.995370000000     0.464370000000    -0.0852311  
C865     C      0.745520000000     0.522600000000     0.480510000000    -0.00491477 
C866     C      0.745510000000     0.522600000000     0.512030000000    -0.00495314 
C867     C      0.745250000000     0.995370000000     0.528170000000    -0.0851152  
C868     C      0.744990000000     0.968140000000     0.512030000000    -0.00483994 
C869     C      0.994960000000     0.717860000000     0.480520000000    -0.00528228 
C870     C      0.495230000000     0.745090000000     0.464380000000    -0.081446   
C871     C      0.495490000000     0.772320000000     0.480520000000    -0.00499134 
C872     C      0.495490000000     0.772320000000     0.512030000000    -0.00487867 
C873     C      0.495220000000     0.745090000000     0.528170000000    -0.0815875  
C874     C      0.994950000000     0.717860000000     0.512030000000    -0.00515746 
C875     C      0.885950000000     0.771630000000     0.371420000000    -0.00524771 
C876     C      0.902070000000     0.744420000000     0.370980000000    -0.081614   
C877     C      0.885970000000     0.717170000000     0.370540000000    -0.00507147 
C878     C      0.854500000000     0.717170000000     0.370540000000    -0.00504633 
C879     C      0.838410000000     0.744420000000     0.370980000000    -0.0815687  
C880     C      0.854520000000     0.771630000000     0.371420000000    -0.00526499 
C881     C      0.604530000000     0.718590000000     0.371410000000    -0.00525117 
C882     C      0.588410000000     0.745810000000     0.370990000000    -0.0816569  
C883     C      0.604500000000     0.773050000000     0.370560000000    -0.00502597 
C884     C      0.635970000000     0.773050000000     0.370560000000    -0.00495291 
C885     C      0.652070000000     0.745810000000     0.370990000000    -0.081781   
C886     C      0.635950000000     0.718590000000     0.371410000000    -0.00518111 
C887     C      0.995330000000     0.522600000000     0.480510000000    -0.00524824 
C888     C      0.495240000000     0.495370000000     0.464370000000    -0.0815004  
C889     C      0.495160000000     0.968130000000     0.480510000000    -0.00481453 
C890     C      0.495160000000     0.968130000000     0.512030000000    -0.00488039 
C891     C      0.495240000000     0.995370000000     0.528170000000    -0.0851347  
C892     C      0.995320000000     0.522600000000     0.512030000000    -0.0051973  
C893     C      0.854550000000     0.522610000000     0.370940000000    -0.0051551  
C894     C      0.838430000000     0.495390000000     0.370960000000    -0.0816176  
C895     C      0.854510000000     0.968140000000     0.370970000000    -0.00499467 
C896     C      0.885960000000     0.968090000000     0.370960000000    -0.00512765 
C897     C      0.902080000000     0.495300000000     0.370960000000    -0.0815682  
C898     C      0.886000000000     0.522560000000     0.370960000000    -0.00513032 
C899     C      0.604550000000     0.522610000000     0.370960000000    -0.00506873 
C900     C      0.588430000000     0.495400000000     0.370970000000    -0.0817414  
C901     C      0.604510000000     0.968140000000     0.370980000000    -0.00499842 
C902     C      0.635960000000     0.968100000000     0.370970000000    -0.0049693  
C903     C      0.652080000000     0.495310000000     0.370970000000    -0.081574   
C904     C      0.636000000000     0.522570000000     0.370970000000    -0.00526042 
C905     C      0.725730000000     0.764250000000     0.762020000000    -0.00348684 
C906     C      0.745210000000     0.745170000000     0.778000000000    -0.0821407  
C907     C      0.764680000000     0.726070000000     0.762050000000    -0.00347589 
C908     C      0.764300000000     0.725670000000     0.730530000000    -0.00341811 
C909     C      0.745210000000     0.745140000000     0.714550000000    -0.0821961  
C910     C      0.726120000000     0.764620000000     0.730500000000    -0.00337245 
C911     C      0.764770000000     0.976260000000     0.762020000000    -0.00245717 
C912     C      0.745220000000     0.995270000000     0.778000000000    -0.0874996  
C913     C      0.725670000000     0.514300000000     0.762040000000    -0.00340605 
C914     C      0.726060000000     0.514710000000     0.730520000000    -0.00338466 
C915     C      0.745230000000     0.995310000000     0.714540000000    -0.0855261  
C916     C      0.764390000000     0.975900000000     0.730500000000    -0.00373997 
C917     C      0.717960000000     0.885930000000     0.870920000000    -0.00511854 
C918     C      0.745170000000     0.902050000000     0.870940000000    -0.0815798  
C919     C      0.772420000000     0.885970000000     0.870940000000    -0.00517222 
C920     C      0.772470000000     0.854520000000     0.870930000000    -0.00515189 
C921     C      0.745260000000     0.838390000000     0.870940000000    -0.081714   
C922     C      0.718000000000     0.854480000000     0.870930000000    -0.00509738 
C923     C      0.772460000000     0.604520000000     0.870990000000    -0.00508014 
C924     C      0.745250000000     0.588400000000     0.871000000000    -0.0817006  
C925     C      0.717990000000     0.604480000000     0.871000000000    -0.0051515  
C926     C      0.717950000000     0.635930000000     0.870990000000    -0.00511362 
C927     C      0.745160000000     0.652050000000     0.871000000000    -0.081698   
C928     C      0.772420000000     0.635970000000     0.871000000000    -0.00512525 
C929     C      0.975830000000     0.764330000000     0.762030000000    -0.00376517 
C930     C      0.495240000000     0.745180000000     0.778000000000    -0.0820628  
C931     C      0.514640000000     0.726000000000     0.762050000000    -0.00345384 
C932     C      0.514250000000     0.725600000000     0.730530000000    -0.00337513 
C933     C      0.495230000000     0.745140000000     0.714550000000    -0.0821309  
C934     C      0.976210000000     0.764700000000     0.730510000000    -0.00246917 
C935     C      0.975770000000     0.976190000000     0.762020000000    -0.00288971 
C936     C      0.495250000000     0.995270000000     0.778000000000    -0.0873846  
C937     C      0.514720000000     0.514370000000     0.762040000000    -0.00342156 
C938     C      0.514330000000     0.514780000000     0.730520000000    -0.00335293 
C939     C      0.495240000000     0.995310000000     0.714550000000    -0.0854706  
C940     C      0.976150000000     0.975830000000     0.730500000000    -0.00274842 
C941     C      0.968730000000     0.885940000000     0.871380000000    -0.00518405 
C942     C      0.495950000000     0.902050000000     0.870950000000    -0.0815774  
C943     C      0.523200000000     0.885960000000     0.870510000000    -0.00511818 
C944     C      0.523200000000     0.854490000000     0.870510000000    -0.00500342 
C945     C      0.495950000000     0.838390000000     0.870950000000    -0.0817704  
C946     C      0.968730000000     0.854510000000     0.871380000000    -0.0050851  
C947     C      0.521780000000     0.604510000000     0.871440000000    -0.0052508  
C948     C      0.494560000000     0.588400000000     0.871020000000    -0.0816428  
C949     C      0.967310000000     0.604490000000     0.870580000000    -0.00495091 
C950     C      0.967310000000     0.635960000000     0.870580000000    -0.00494366 
C951     C      0.494560000000     0.652050000000     0.871020000000    -0.0816476  
C952     C      0.521780000000     0.635930000000     0.871440000000    -0.00524502 
C953     C      0.725750000000     0.726080000000     0.230500000000    -0.00348501 
C954     C      0.745230000000     0.745190000000     0.214550000000    -0.082011   
C955     C      0.764700000000     0.764270000000     0.230520000000    -0.00345091 
C956     C      0.764320000000     0.764630000000     0.262040000000    -0.00330941 
C957     C      0.745240000000     0.745150000000     0.278000000000    -0.0821204  
C958     C      0.726140000000     0.725680000000     0.262020000000    -0.00335905 
C959     C      0.772440000000     0.745340000000     0.012030000000    -0.00492108 
C960     C      0.745210000000     0.745260000000     0.028170000000    -0.0815146  
C961     C      0.717980000000     0.745180000000     0.012030000000    -0.00490326 
C962     C      0.717980000000     0.745180000000     0.980510000000    -0.00493925 
C963     C      0.745210000000     0.745260000000     0.964370000000    -0.0814791  
C964     C      0.772440000000     0.745340000000     0.980510000000    -0.00492955 
C965     C      0.725830000000     0.514460000000     0.230500000000    -0.00345556 
C966     C      0.745230000000     0.995280000000     0.214540000000    -0.0874119  
C967     C      0.764640000000     0.976130000000     0.230520000000    -0.00246439 
C968     C      0.764260000000     0.975760000000     0.262040000000    -0.0037932  
C969     C      0.745250000000     0.995320000000     0.277990000000    -0.0854025  
C970     C      0.726230000000     0.514860000000     0.262020000000    -0.00338579 
C971     C      0.772440000000     0.495460000000     0.012030000000    -0.0049853  
C972     C      0.745210000000     0.995200000000     0.028170000000    -0.0818     
C973     C      0.717970000000     0.994930000000     0.012030000000    -0.00528125 
C974     C      0.717970000000     0.994930000000     0.980510000000    -0.00520506 
C975     C      0.745200000000     0.995200000000     0.964370000000    -0.0818982  
C976     C      0.772440000000     0.495460000000     0.980510000000    -0.00494273 
C977     C      0.717280000000     0.854500000000     0.122030000000    -0.00496629 
C978     C      0.744520000000     0.838400000000     0.121590000000    -0.0817782  
C979     C      0.771740000000     0.854520000000     0.121170000000    -0.00519185 
C980     C      0.771740000000     0.885940000000     0.121170000000    -0.0052998  
C981     C      0.744520000000     0.902060000000     0.121590000000    -0.0816164  
C982     C      0.717280000000     0.885970000000     0.122030000000    -0.00503725 
C983     C      0.773160000000     0.604490000000     0.121960000000    -0.00500436 
C984     C      0.745920000000     0.588400000000     0.121530000000    -0.0816747  
C985     C      0.718700000000     0.604520000000     0.121100000000    -0.0052347  
C986     C      0.718700000000     0.635940000000     0.121100000000    -0.00525983 
C987     C      0.745920000000     0.652060000000     0.121530000000    -0.0815908  
C988     C      0.773160000000     0.635970000000     0.121960000000    -0.00505118 
C989     C      0.975700000000     0.764190000000     0.230520000000    -0.00381427 
C990     C      0.495260000000     0.745190000000     0.214550000000    -0.0821298  
C991     C      0.514800000000     0.726160000000     0.230510000000    -0.00339755 
C992     C      0.514410000000     0.725750000000     0.262030000000    -0.00340999 
C993     C      0.495240000000     0.745150000000     0.278000000000    -0.0821784  
C994     C      0.976080000000     0.764560000000     0.262040000000    -0.00242112 
C995     C      0.522500000000     0.745530000000     0.012030000000    -0.0049067  
C996     C      0.495270000000     0.745260000000     0.028180000000    -0.0815948  
C997     C      0.968030000000     0.744990000000     0.012040000000    -0.00481782 
C998     C      0.968030000000     0.745000000000     0.980520000000    -0.00487691 
C999     C      0.495270000000     0.745260000000     0.964380000000    -0.0814337  
C1000    C      0.522500000000     0.745520000000     0.980520000000    -0.00498189 
C1001    C      0.514750000000     0.976200000000     0.230520000000    -0.00255939 
C1002    C      0.495270000000     0.495280000000     0.214550000000    -0.0821542  
C1003    C      0.975790000000     0.514380000000     0.230500000000    -0.00387462 
C1004    C      0.976180000000     0.514790000000     0.262020000000    -0.00244473 
C1005    C      0.495270000000     0.495320000000     0.278000000000    -0.0823015  
C1006    C      0.514360000000     0.975840000000     0.262040000000    -0.00376353 
C1007    C      0.468030000000     0.995110000000     0.012040000000    -0.00530643 
C1008    C      0.495260000000     0.995200000000     0.028170000000    -0.0817642  
C1009    C      0.522500000000     0.495280000000     0.012030000000    -0.00502342 
C1010    C      0.522500000000     0.495270000000     0.980520000000    -0.00494897 
C1011    C      0.495260000000     0.995200000000     0.964380000000    -0.0818655  
C1012    C      0.468030000000     0.995120000000     0.980520000000    -0.00518957 
C1013    C      0.968010000000     0.885940000000     0.121620000000    -0.00511031 
C1014    C      0.495220000000     0.902060000000     0.121610000000    -0.0816998  
C1015    C      0.522470000000     0.885980000000     0.121610000000    -0.00507465 
C1016    C      0.522520000000     0.854530000000     0.121620000000    -0.00511364 
C1017    C      0.495310000000     0.838400000000     0.121610000000    -0.0817011  
C1018    C      0.968050000000     0.854490000000     0.121610000000    -0.00497394 
C1019    C      0.522480000000     0.635980000000     0.121550000000    -0.00510032 
C1020    C      0.495230000000     0.652060000000     0.121550000000    -0.0817165  
C1021    C      0.968010000000     0.635930000000     0.121560000000    -0.00503191 
C1022    C      0.968060000000     0.604490000000     0.121540000000    -0.00490686 
C1023    C      0.495310000000     0.588400000000     0.121550000000    -0.0817229  
C1024    C      0.522530000000     0.604530000000     0.121560000000    -0.00520133 
Cu1      Cu     0.023140000000     0.995110000000     0.121550000000     0.839115   
Cu2      Cu     0.467400000000     0.495360000000     0.121550000000     0.839977   
Cu3      Cu     0.023130000000     0.245110000000     0.121550000000     0.842853   
Cu4      Cu     0.467390000000     0.245360000000     0.121550000000     0.839837   
Cu5      Cu     0.273090000000     0.494920000000     0.121540000000     0.839844   
Cu6      Cu     0.217350000000     0.495540000000     0.121550000000     0.84002    
Cu7      Cu     0.273080000000     0.245540000000     0.121540000000     0.839824   
Cu8      Cu     0.217350000000     0.244920000000     0.121540000000     0.839982   
Cu9      Cu     0.023120000000     0.495530000000     0.871000000000     0.842775   
Cu10     Cu     0.467390000000     0.494920000000     0.871010000000     0.83971    
Cu11     Cu     0.023120000000     0.244920000000     0.871000000000     0.842667   
Cu12     Cu     0.467390000000     0.245530000000     0.871010000000     0.840041   
Cu13     Cu     0.217340000000     0.495350000000     0.870990000000     0.840095   
Cu14     Cu     0.273080000000     0.495100000000     0.871000000000     0.839914   
Cu15     Cu     0.273080000000     0.245100000000     0.871000000000     0.839909   
Cu16     Cu     0.217340000000     0.245350000000     0.871000000000     0.840111   
Cu17     Cu     0.995380000000     0.467480000000     0.371010000000     0.836123   
Cu18     Cu     0.995130000000     0.023220000000     0.370990000000     0.839175   
Cu19     Cu     0.995540000000     0.217250000000     0.371000000000     0.836213   
Cu20     Cu     0.994930000000     0.272980000000     0.371010000000     0.83629    
Cu21     Cu     0.245380000000     0.467480000000     0.371000000000     0.840004   
Cu22     Cu     0.245130000000     0.023220000000     0.370990000000     0.842805   
Cu23     Cu     0.244930000000     0.217250000000     0.370990000000     0.839969   
Cu24     Cu     0.245550000000     0.272980000000     0.371010000000     0.839979   
Cu25     Cu     0.994930000000     0.467480000000     0.621530000000     0.836316   
Cu26     Cu     0.995550000000     0.023210000000     0.621550000000     0.838949   
Cu27     Cu     0.995340000000     0.217240000000     0.621560000000     0.836248   
Cu28     Cu     0.995100000000     0.272980000000     0.621540000000     0.836353   
Cu29     Cu     0.244930000000     0.023210000000     0.621550000000     0.842722   
Cu30     Cu     0.245550000000     0.467480000000     0.621530000000     0.839951   
Cu31     Cu     0.245090000000     0.272980000000     0.621540000000     0.839968   
Cu32     Cu     0.245340000000     0.217240000000     0.621550000000     0.840054   
Cu33     Cu     0.023140000000     0.495110000000     0.121550000000     0.842607   
Cu34     Cu     0.467400000000     0.995360000000     0.121550000000     0.836271   
Cu35     Cu     0.023130000000     0.745110000000     0.121550000000     0.842837   
Cu36     Cu     0.467390000000     0.745350000000     0.121550000000     0.839816   
Cu37     Cu     0.273090000000     0.994930000000     0.121540000000     0.83624    
Cu38     Cu     0.217350000000     0.995540000000     0.121550000000     0.836199   
Cu39     Cu     0.273080000000     0.745540000000     0.121540000000     0.839809   
Cu40     Cu     0.217350000000     0.744920000000     0.121540000000     0.839962   
Cu41     Cu     0.023120000000     0.995530000000     0.871000000000     0.839022   
Cu42     Cu     0.467390000000     0.994910000000     0.871010000000     0.836272   
Cu43     Cu     0.023120000000     0.744920000000     0.871000000000     0.842785   
Cu44     Cu     0.467390000000     0.745530000000     0.871010000000     0.840002   
Cu45     Cu     0.217340000000     0.995350000000     0.870990000000     0.836366   
Cu46     Cu     0.273080000000     0.995100000000     0.871000000000     0.836333   
Cu47     Cu     0.273080000000     0.745100000000     0.871000000000     0.839891   
Cu48     Cu     0.217340000000     0.745350000000     0.871000000000     0.840096   
Cu49     Cu     0.995380000000     0.967480000000     0.371010000000     0.831642   
Cu50     Cu     0.995130000000     0.523220000000     0.370990000000     0.836271   
Cu51     Cu     0.995540000000     0.717250000000     0.371000000000     0.836174   
Cu52     Cu     0.994930000000     0.772980000000     0.371010000000     0.836391   
Cu53     Cu     0.245380000000     0.967480000000     0.371000000000     0.835487   
Cu54     Cu     0.245130000000     0.523220000000     0.370990000000     0.839882   
Cu55     Cu     0.244930000000     0.717250000000     0.370990000000     0.839903   
Cu56     Cu     0.245550000000     0.772980000000     0.371010000000     0.840056   
Cu57     Cu     0.994930000000     0.967480000000     0.621530000000     0.83178    
Cu58     Cu     0.995550000000     0.523210000000     0.621550000000     0.836042   
Cu59     Cu     0.995340000000     0.717240000000     0.621560000000     0.836178   
Cu60     Cu     0.995100000000     0.772980000000     0.621540000000     0.836431   
Cu61     Cu     0.244930000000     0.523210000000     0.621550000000     0.839822   
Cu62     Cu     0.245550000000     0.967480000000     0.621530000000     0.835403   
Cu63     Cu     0.245090000000     0.772980000000     0.621540000000     0.840047   
Cu64     Cu     0.245340000000     0.717240000000     0.621550000000     0.839988   
Cu65     Cu     0.523140000000     0.995110000000     0.121550000000     0.836208   
Cu66     Cu     0.967400000000     0.495360000000     0.121550000000     0.835428   
Cu67     Cu     0.523130000000     0.245110000000     0.121550000000     0.840082   
Cu68     Cu     0.967400000000     0.245360000000     0.121550000000     0.83525    
Cu69     Cu     0.773090000000     0.494920000000     0.121540000000     0.839948   
Cu70     Cu     0.717350000000     0.495540000000     0.121550000000     0.839929   
Cu71     Cu     0.773090000000     0.245540000000     0.121540000000     0.839954   
Cu72     Cu     0.717350000000     0.244920000000     0.121540000000     0.840037   
Cu73     Cu     0.523120000000     0.495530000000     0.871000000000     0.839875   
Cu74     Cu     0.967390000000     0.494920000000     0.871010000000     0.835164   
Cu75     Cu     0.523120000000     0.244920000000     0.871000000000     0.839745   
Cu76     Cu     0.967390000000     0.245530000000     0.871010000000     0.835528   
Cu77     Cu     0.717340000000     0.495350000000     0.870990000000     0.840028   
Cu78     Cu     0.773080000000     0.495100000000     0.871000000000     0.839992   
Cu79     Cu     0.773080000000     0.245100000000     0.871000000000     0.840003   
Cu80     Cu     0.717340000000     0.245350000000     0.871000000000     0.840079   
Cu81     Cu     0.495380000000     0.467480000000     0.371010000000     0.839819   
Cu82     Cu     0.495130000000     0.023220000000     0.370990000000     0.842801   
Cu83     Cu     0.495540000000     0.217250000000     0.371000000000     0.83979    
Cu84     Cu     0.494930000000     0.272980000000     0.371010000000     0.839797   
Cu85     Cu     0.745380000000     0.467480000000     0.371000000000     0.839979   
Cu86     Cu     0.745130000000     0.023220000000     0.370990000000     0.842793   
Cu87     Cu     0.744920000000     0.217250000000     0.370990000000     0.839971   
Cu88     Cu     0.745540000000     0.272980000000     0.371010000000     0.839825   
Cu89     Cu     0.494930000000     0.467480000000     0.621530000000     0.839895   
Cu90     Cu     0.495550000000     0.023210000000     0.621550000000     0.842687   
Cu91     Cu     0.495340000000     0.217240000000     0.621560000000     0.84       
Cu92     Cu     0.495100000000     0.272980000000     0.621540000000     0.839806   
Cu93     Cu     0.744930000000     0.023210000000     0.621550000000     0.842703   
Cu94     Cu     0.745550000000     0.467480000000     0.621530000000     0.83993    
Cu95     Cu     0.745090000000     0.272980000000     0.621540000000     0.839945   
Cu96     Cu     0.745350000000     0.217240000000     0.621550000000     0.840038   
Cu97     Cu     0.523140000000     0.495110000000     0.121550000000     0.839704   
Cu98     Cu     0.967400000000     0.995360000000     0.121550000000     0.831738   
Cu99     Cu     0.523130000000     0.745110000000     0.121550000000     0.840063   
Cu100    Cu     0.967400000000     0.745350000000     0.121550000000     0.835226   
Cu101    Cu     0.773090000000     0.994930000000     0.121540000000     0.836345   
Cu102    Cu     0.717350000000     0.995540000000     0.121550000000     0.836106   
Cu103    Cu     0.773090000000     0.745540000000     0.121540000000     0.83994    
Cu104    Cu     0.717350000000     0.744920000000     0.121540000000     0.840017   
Cu105    Cu     0.523120000000     0.995530000000     0.871000000000     0.836117   
Cu106    Cu     0.967390000000     0.994910000000     0.871010000000     0.831741   
Cu107    Cu     0.523120000000     0.744920000000     0.871000000000     0.839861   
Cu108    Cu     0.967390000000     0.745530000000     0.871010000000     0.835487   
Cu109    Cu     0.717340000000     0.995350000000     0.870990000000     0.836297   
Cu110    Cu     0.773080000000     0.995100000000     0.871000000000     0.836413   
Cu111    Cu     0.773080000000     0.745100000000     0.871000000000     0.839986   
Cu112    Cu     0.717340000000     0.745350000000     0.871000000000     0.840063   
Cu113    Cu     0.495380000000     0.967480000000     0.371010000000     0.835322   
Cu114    Cu     0.495130000000     0.523220000000     0.370990000000     0.839902   
Cu115    Cu     0.495540000000     0.717250000000     0.371000000000     0.839753   
Cu116    Cu     0.494930000000     0.772980000000     0.371010000000     0.839897   
Cu117    Cu     0.745380000000     0.967480000000     0.371000000000     0.835461   
Cu118    Cu     0.745130000000     0.523220000000     0.370990000000     0.839868   
Cu119    Cu     0.744920000000     0.717250000000     0.370990000000     0.839906   
Cu120    Cu     0.745540000000     0.772980000000     0.371010000000     0.839902   
Cu121    Cu     0.494930000000     0.967480000000     0.621530000000     0.835343   
Cu122    Cu     0.495550000000     0.523210000000     0.621550000000     0.839784   
Cu123    Cu     0.495340000000     0.717240000000     0.621560000000     0.839933   
Cu124    Cu     0.495100000000     0.772980000000     0.621540000000     0.839884   
Cu125    Cu     0.744930000000     0.523210000000     0.621550000000     0.8398     
Cu126    Cu     0.745550000000     0.967480000000     0.621530000000     0.83538    
Cu127    Cu     0.745090000000     0.772980000000     0.621540000000     0.840024   
Cu128    Cu     0.745350000000     0.717240000000     0.621550000000     0.839972   
H1       H      0.397630000000     0.293720000000     0.621570000000     0.044486   
H2       H      0.397560000000     0.196440000000     0.621600000000     0.0449402  
H3       H      0.342810000000     0.196500000000     0.621600000000     0.0448058  
H4       H      0.342880000000     0.293780000000     0.621580000000     0.0446188  
H5       H      0.092800000000     0.196500000000     0.621590000000     0.0452279  
H6       H      0.092880000000     0.293770000000     0.621570000000     0.0455104  
H7       H      0.147630000000     0.293710000000     0.621560000000     0.0448984  
H8       H      0.147560000000     0.196430000000     0.621590000000     0.04481    
H9       H      0.397650000000     0.044670000000     0.622350000000     0.0445774  
H10      H      0.397570000000     0.447410000000     0.620790000000     0.044497   
H11      H      0.342910000000     0.447410000000     0.620790000000     0.0445558  
H12      H      0.342820000000     0.044670000000     0.622350000000     0.0445524  
H13      H      0.092910000000     0.043290000000     0.620810000000     0.0448288  
H14      H      0.092820000000     0.446020000000     0.622320000000     0.0455506  
H15      H      0.147660000000     0.446020000000     0.622310000000     0.0449806  
H16      H      0.147570000000     0.043290000000     0.620810000000     0.0443704  
H17      H      0.245380000000     0.293730000000     0.468840000000     0.0447394  
H18      H      0.245090000000     0.196450000000     0.468840000000     0.0448129  
H19      H      0.245080000000     0.196450000000     0.523710000000     0.0447955  
H20      H      0.245380000000     0.293730000000     0.523710000000     0.0447166  
H21      H      0.244780000000     0.446730000000     0.468830000000     0.0447392  
H22      H      0.245730000000     0.044010000000     0.468830000000     0.0444126  
H23      H      0.245720000000     0.044000000000     0.523710000000     0.0444529  
H24      H      0.244780000000     0.446730000000     0.523700000000     0.0447463  
H25      H      0.494750000000     0.196450000000     0.468840000000     0.0447494  
H26      H      0.995700000000     0.293730000000     0.468850000000     0.0442164  
H27      H      0.995690000000     0.293730000000     0.523710000000     0.0441941  
H28      H      0.494740000000     0.196450000000     0.523710000000     0.0447302  
H29      H      0.397570000000     0.293050000000     0.371760000000     0.0445682  
H30      H      0.397650000000     0.195790000000     0.370190000000     0.0449103  
H31      H      0.342820000000     0.195790000000     0.370190000000     0.044941   
H32      H      0.342900000000     0.293050000000     0.371760000000     0.0445078  
H33      H      0.092900000000     0.197170000000     0.371740000000     0.0452887  
H34      H      0.092820000000     0.294440000000     0.370230000000     0.0454604  
H35      H      0.147650000000     0.294440000000     0.370230000000     0.0450006  
H36      H      0.147570000000     0.197170000000     0.371740000000     0.0447572  
H37      H      0.495390000000     0.044010000000     0.468840000000     0.0443522  
H38      H      0.995100000000     0.446730000000     0.468840000000     0.044226   
H39      H      0.995100000000     0.446730000000     0.523700000000     0.0442238  
H40      H      0.495380000000     0.044010000000     0.523710000000     0.0443642  
H41      H      0.342920000000     0.044020000000     0.370940000000     0.044534   
H42      H      0.342840000000     0.446740000000     0.370970000000     0.0444981  
H43      H      0.397590000000     0.446680000000     0.370970000000     0.0446221  
H44      H      0.397670000000     0.043960000000     0.370950000000     0.0444233  
H45      H      0.092920000000     0.044030000000     0.370950000000     0.0449652  
H46      H      0.092840000000     0.446750000000     0.370990000000     0.0453754  
H47      H      0.147590000000     0.446690000000     0.370980000000     0.0450134  
H48      H      0.147670000000     0.043960000000     0.370960000000     0.0443879  
H49      H      0.210610000000     0.279240000000     0.773920000000     0.0419546  
H50      H      0.279800000000     0.211100000000     0.773960000000     0.0419622  
H51      H      0.279280000000     0.210540000000     0.718620000000     0.0419142  
H52      H      0.211130000000     0.279740000000     0.718580000000     0.0418978  
H53      H      0.279940000000     0.461330000000     0.773920000000     0.0416784  
H54      H      0.210490000000     0.029220000000     0.773950000000     0.0417617  
H55      H      0.211020000000     0.029780000000     0.718620000000     0.041844   
H56      H      0.279430000000     0.460840000000     0.718590000000     0.0416565  
H57      H      0.196540000000     0.397560000000     0.870930000000     0.0449455  
H58      H      0.293820000000     0.397640000000     0.870930000000     0.0444873  
H59      H      0.293880000000     0.342890000000     0.870930000000     0.044628   
H60      H      0.196600000000     0.342810000000     0.870930000000     0.044807   
H61      H      0.293880000000     0.092890000000     0.870990000000     0.0454861  
H62      H      0.196600000000     0.092810000000     0.870990000000     0.0452253  
H63      H      0.196530000000     0.147560000000     0.870990000000     0.0448424  
H64      H      0.293810000000     0.147640000000     0.871000000000     0.0449234  
H65      H      0.460770000000     0.279380000000     0.773930000000     0.0416866  
H66      H      0.029710000000     0.210970000000     0.773960000000     0.0418657  
H67      H      0.029170000000     0.210410000000     0.718620000000     0.0417684  
H68      H      0.461280000000     0.279870000000     0.718600000000     0.0416462  
H69      H      0.460650000000     0.461200000000     0.773920000000     0.0416324  
H70      H      0.029840000000     0.029350000000     0.773960000000     0.0417594  
H71      H      0.029320000000     0.029910000000     0.718620000000     0.0417258  
H72      H      0.461160000000     0.460710000000     0.718590000000     0.0415848  
H73      H      0.447310000000     0.397560000000     0.871720000000     0.0445083  
H74      H      0.044580000000     0.397640000000     0.870180000000     0.0445785  
H75      H      0.044580000000     0.342810000000     0.870180000000     0.0445409  
H76      H      0.447310000000     0.342890000000     0.871720000000     0.044549   
H77      H      0.043200000000     0.092890000000     0.871780000000     0.0448146  
H78      H      0.445930000000     0.092810000000     0.870240000000     0.0455315  
H79      H      0.445930000000     0.147640000000     0.870240000000     0.0449919  
H80      H      0.043200000000     0.147560000000     0.871780000000     0.0443914  
H81      H      0.210630000000     0.211110000000     0.218590000000     0.0417953  
H82      H      0.279820000000     0.279260000000     0.218620000000     0.0416263  
H83      H      0.279310000000     0.279750000000     0.273960000000     0.0416153  
H84      H      0.211160000000     0.210550000000     0.273920000000     0.0417734  
H85      H      0.293850000000     0.245400000000     0.023700000000     0.044765   
H86      H      0.196570000000     0.245120000000     0.023710000000     0.044811   
H87      H      0.196570000000     0.245110000000     0.968840000000     0.0448282  
H88      H      0.293850000000     0.245410000000     0.968830000000     0.0447073  
H89      H      0.210770000000     0.029490000000     0.218590000000     0.0418216  
H90      H      0.279700000000     0.461080000000     0.218610000000     0.0416767  
H91      H      0.279190000000     0.460590000000     0.273950000000     0.0416666  
H92      H      0.211300000000     0.030040000000     0.273920000000     0.0418747  
H93      H      0.293840000000     0.995670000000     0.023700000000     0.044229   
H94      H      0.196570000000     0.494720000000     0.023710000000     0.0447703  
H95      H      0.196570000000     0.494720000000     0.968840000000     0.0447555  
H96      H      0.293840000000     0.995670000000     0.968830000000     0.0442129  
H97      H      0.195890000000     0.342810000000     0.122370000000     0.0449151  
H98      H      0.293160000000     0.342900000000     0.120830000000     0.0444994  
H99      H      0.293160000000     0.397560000000     0.120830000000     0.0445504  
H100     H      0.195890000000     0.397650000000     0.122370000000     0.044881   
H101     H      0.294550000000     0.092820000000     0.122300000000     0.045462   
H102     H      0.197280000000     0.092900000000     0.120770000000     0.0452841  
H103     H      0.197280000000     0.147570000000     0.120770000000     0.0447666  
H104     H      0.294550000000     0.147650000000     0.122300000000     0.0450206  
H105     H      0.460530000000     0.279130000000     0.218620000000     0.0416689  
H106     H      0.029980000000     0.211240000000     0.218600000000     0.0418781  
H107     H      0.029450000000     0.210680000000     0.273930000000     0.0418196  
H108     H      0.461040000000     0.279620000000     0.273960000000     0.0416802  
H109     H      0.043900000000     0.245740000000     0.023710000000     0.0444383  
H110     H      0.446630000000     0.244790000000     0.023710000000     0.0447155  
H111     H      0.446630000000     0.244790000000     0.968850000000     0.0447759  
H112     H      0.043900000000     0.245730000000     0.968840000000     0.0444442  
H113     H      0.029870000000     0.461210000000     0.218620000000     0.0419782  
H114     H      0.460670000000     0.029360000000     0.218580000000     0.0418931  
H115     H      0.461190000000     0.029920000000     0.273920000000     0.0419492  
H116     H      0.029340000000     0.460720000000     0.273960000000     0.0418699  
H117     H      0.946620000000     0.495050000000     0.023710000000     0.0445215  
H118     H      0.043900000000     0.995340000000     0.023710000000     0.0439106  
H119     H      0.043900000000     0.995340000000     0.968840000000     0.0439264  
H120     H      0.946620000000     0.495050000000     0.968840000000     0.0445281  
H121     H      0.446590000000     0.397570000000     0.121620000000     0.044584   
H122     H      0.043870000000     0.397640000000     0.121610000000     0.0444486  
H123     H      0.043930000000     0.342890000000     0.121620000000     0.044527   
H124     H      0.446650000000     0.342820000000     0.121610000000     0.0445082  
H125     H      0.043880000000     0.147650000000     0.121550000000     0.044369   
H126     H      0.446600000000     0.147570000000     0.121550000000     0.045004   
H127     H      0.446660000000     0.092820000000     0.121550000000     0.0453583  
H128     H      0.043940000000     0.092900000000     0.121550000000     0.0450001  
H129     H      0.397630000000     0.793720000000     0.621570000000     0.0444994  
H130     H      0.397560000000     0.696440000000     0.621600000000     0.0448653  
H131     H      0.342810000000     0.696500000000     0.621600000000     0.0447419  
H132     H      0.342880000000     0.793780000000     0.621580000000     0.0446227  
H133     H      0.092800000000     0.696500000000     0.621590000000     0.0451742  
H134     H      0.092880000000     0.793770000000     0.621570000000     0.0455126  
H135     H      0.147630000000     0.793710000000     0.621560000000     0.0448988  
H136     H      0.147560000000     0.696430000000     0.621590000000     0.0447561  
H137     H      0.397650000000     0.544670000000     0.622350000000     0.0448617  
H138     H      0.397570000000     0.947410000000     0.620790000000     0.0443916  
H139     H      0.342910000000     0.947410000000     0.620790000000     0.04445    
H140     H      0.342820000000     0.544670000000     0.622350000000     0.0448377  
H141     H      0.092910000000     0.543290000000     0.620810000000     0.0451739  
H142     H      0.092820000000     0.946020000000     0.622320000000     0.0453922  
H143     H      0.147660000000     0.946020000000     0.622310000000     0.0448228  
H144     H      0.147570000000     0.543290000000     0.620810000000     0.0447145  
H145     H      0.245380000000     0.793730000000     0.468840000000     0.0447787  
H146     H      0.245090000000     0.696450000000     0.468840000000     0.0447649  
H147     H      0.245080000000     0.696450000000     0.523710000000     0.0447363  
H148     H      0.245380000000     0.793730000000     0.523710000000     0.0447112  
H149     H      0.244780000000     0.946730000000     0.468830000000     0.0445805  
H150     H      0.245730000000     0.544010000000     0.468830000000     0.0447522  
H151     H      0.245720000000     0.544000000000     0.523710000000     0.0447723  
H152     H      0.244780000000     0.946730000000     0.523700000000     0.0446128  
H153     H      0.494750000000     0.696460000000     0.468840000000     0.044717   
H154     H      0.995700000000     0.793730000000     0.468850000000     0.0442269  
H155     H      0.995690000000     0.793730000000     0.523710000000     0.0442001  
H156     H      0.494740000000     0.696450000000     0.523710000000     0.0446699  
H157     H      0.397570000000     0.793050000000     0.371760000000     0.0445716  
H158     H      0.397650000000     0.695790000000     0.370190000000     0.0448561  
H159     H      0.342820000000     0.695780000000     0.370190000000     0.0448568  
H160     H      0.342900000000     0.793050000000     0.371760000000     0.0445073  
H161     H      0.092900000000     0.697170000000     0.371740000000     0.0452272  
H162     H      0.092820000000     0.794440000000     0.370230000000     0.0454666  
H163     H      0.147650000000     0.794440000000     0.370230000000     0.045006   
H164     H      0.147570000000     0.697170000000     0.371740000000     0.0446981  
H165     H      0.495390000000     0.544010000000     0.468840000000     0.0446921  
H166     H      0.995100000000     0.946730000000     0.468840000000     0.0440872  
H167     H      0.995100000000     0.946730000000     0.523700000000     0.0441106  
H168     H      0.495380000000     0.544010000000     0.523710000000     0.0446818  
H169     H      0.342920000000     0.544020000000     0.370940000000     0.0448716  
H170     H      0.342840000000     0.946740000000     0.370970000000     0.0443565  
H171     H      0.397590000000     0.946680000000     0.370970000000     0.0444792  
H172     H      0.397670000000     0.543960000000     0.370950000000     0.0447367  
H173     H      0.092920000000     0.544030000000     0.370950000000     0.0452705  
H174     H      0.092840000000     0.946750000000     0.370990000000     0.045246   
H175     H      0.147590000000     0.946680000000     0.370980000000     0.0448422  
H176     H      0.147670000000     0.543960000000     0.370960000000     0.0447182  
H177     H      0.210610000000     0.779240000000     0.773920000000     0.0419529  
H178     H      0.279800000000     0.711100000000     0.773960000000     0.0418805  
H179     H      0.279280000000     0.710540000000     0.718620000000     0.0418454  
H180     H      0.211130000000     0.779740000000     0.718580000000     0.0418967  
H181     H      0.279940000000     0.961330000000     0.773920000000     0.0412087  
H182     H      0.210490000000     0.529220000000     0.773950000000     0.0417472  
H183     H      0.211020000000     0.529780000000     0.718620000000     0.0417475  
H184     H      0.279430000000     0.960840000000     0.718590000000     0.0415178  
H185     H      0.196540000000     0.897560000000     0.870930000000     0.0448816  
H186     H      0.293820000000     0.897640000000     0.870930000000     0.0444572  
H187     H      0.293880000000     0.842890000000     0.870930000000     0.0446195  
H188     H      0.196600000000     0.842810000000     0.870930000000     0.0447846  
H189     H      0.293880000000     0.592890000000     0.870990000000     0.044812   
H190     H      0.196600000000     0.592810000000     0.870990000000     0.0446023  
H191     H      0.196530000000     0.647560000000     0.870990000000     0.0447048  
H192     H      0.293810000000     0.647640000000     0.871000000000     0.0447654  
H193     H      0.460770000000     0.779380000000     0.773930000000     0.0416795  
H194     H      0.029710000000     0.710970000000     0.773960000000     0.0417984  
H195     H      0.029170000000     0.710410000000     0.718620000000     0.0417213  
H196     H      0.461280000000     0.779870000000     0.718600000000     0.0416724  
H197     H      0.460650000000     0.961200000000     0.773920000000     0.0411617  
H198     H      0.029840000000     0.529350000000     0.773960000000     0.0417441  
H199     H      0.029320000000     0.529910000000     0.718620000000     0.0416317  
H200     H      0.461160000000     0.960710000000     0.718590000000     0.0414463  
H201     H      0.447310000000     0.897560000000     0.871720000000     0.0444778  
H202     H      0.044580000000     0.897640000000     0.870180000000     0.0445171  
H203     H      0.044580000000     0.842810000000     0.870180000000     0.0445207  
H204     H      0.447310000000     0.842890000000     0.871720000000     0.0445417  
H205     H      0.043200000000     0.592890000000     0.871780000000     0.0441991  
H206     H      0.445930000000     0.592810000000     0.870240000000     0.0448679  
H207     H      0.445930000000     0.647640000000     0.870240000000     0.044829   
H208     H      0.043200000000     0.647560000000     0.871780000000     0.0442415  
H209     H      0.210630000000     0.711110000000     0.218590000000     0.0417418  
H210     H      0.279820000000     0.779260000000     0.218620000000     0.0416328  
H211     H      0.279310000000     0.779750000000     0.273960000000     0.0416091  
H212     H      0.211160000000     0.710550000000     0.273920000000     0.0417129  
H213     H      0.293850000000     0.745410000000     0.023700000000     0.0447158  
H214     H      0.196570000000     0.745120000000     0.023710000000     0.0447619  
H215     H      0.196570000000     0.745110000000     0.968840000000     0.0447794  
H216     H      0.293850000000     0.745410000000     0.968830000000     0.0446585  
H217     H      0.210770000000     0.529490000000     0.218590000000     0.041781   
H218     H      0.279700000000     0.961080000000     0.218610000000     0.041186   
H219     H      0.279190000000     0.960590000000     0.273950000000     0.0415034  
H220     H      0.211300000000     0.530040000000     0.273920000000     0.0417557  
H221     H      0.293840000000     0.495670000000     0.023700000000     0.0446854  
H222     H      0.196570000000     0.994730000000     0.023710000000     0.0443224  
H223     H      0.196570000000     0.994720000000     0.968840000000     0.0443033  
H224     H      0.293840000000     0.495670000000     0.968830000000     0.044666   
H225     H      0.195890000000     0.842820000000     0.122370000000     0.0449103  
H226     H      0.293160000000     0.842900000000     0.120830000000     0.0444956  
H227     H      0.293160000000     0.897560000000     0.120830000000     0.0445007  
H228     H      0.195890000000     0.897650000000     0.122370000000     0.0448225  
H229     H      0.294550000000     0.592810000000     0.122300000000     0.0448075  
H230     H      0.197280000000     0.592900000000     0.120770000000     0.044646   
H231     H      0.197280000000     0.647570000000     0.120770000000     0.0446234  
H232     H      0.294550000000     0.647650000000     0.122300000000     0.0448747  
H233     H      0.460530000000     0.779130000000     0.218620000000     0.0416704  
H234     H      0.029980000000     0.711240000000     0.218600000000     0.0418173  
H235     H      0.029450000000     0.710680000000     0.273930000000     0.0417429  
H236     H      0.461040000000     0.779620000000     0.273960000000     0.0416635  
H237     H      0.043900000000     0.745730000000     0.023710000000     0.0443905  
H238     H      0.446630000000     0.744790000000     0.023710000000     0.0446656  
H239     H      0.446630000000     0.744780000000     0.968850000000     0.0447249  
H240     H      0.043900000000     0.745730000000     0.968840000000     0.0443956  
H241     H      0.029870000000     0.961210000000     0.218620000000     0.0414845  
H242     H      0.460670000000     0.529360000000     0.218580000000     0.0418519  
H243     H      0.461190000000     0.529920000000     0.273920000000     0.0418251  
H244     H      0.029340000000     0.960720000000     0.273960000000     0.041708   
H245     H      0.946620000000     0.995050000000     0.023710000000     0.0440716  
H246     H      0.043900000000     0.495350000000     0.023710000000     0.044364   
H247     H      0.043900000000     0.495340000000     0.968840000000     0.044385   
H248     H      0.946620000000     0.995050000000     0.968840000000     0.0440829  
H249     H      0.446590000000     0.897570000000     0.121620000000     0.0445243  
H250     H      0.043870000000     0.897650000000     0.121610000000     0.0443933  
H251     H      0.043930000000     0.842890000000     0.121620000000     0.0445248  
H252     H      0.446650000000     0.842820000000     0.121610000000     0.044502   
H253     H      0.043880000000     0.647650000000     0.121550000000     0.0442195  
H254     H      0.446600000000     0.647570000000     0.121550000000     0.0448586  
H255     H      0.446660000000     0.592820000000     0.121550000000     0.0447208  
H256     H      0.043940000000     0.592900000000     0.121550000000     0.044343   
H257     H      0.897640000000     0.293720000000     0.621570000000     0.04444    
H258     H      0.897560000000     0.196440000000     0.621600000000     0.0448709  
H259     H      0.842800000000     0.196500000000     0.621600000000     0.0447946  
H260     H      0.842880000000     0.293780000000     0.621580000000     0.04462    
H261     H      0.592800000000     0.196500000000     0.621590000000     0.0446043  
H262     H      0.592880000000     0.293770000000     0.621570000000     0.044836   
H263     H      0.647630000000     0.293710000000     0.621560000000     0.044742   
H264     H      0.647560000000     0.196430000000     0.621590000000     0.0446742  
H265     H      0.897660000000     0.044670000000     0.622350000000     0.0445041  
H266     H      0.897570000000     0.447410000000     0.620790000000     0.0444592  
H267     H      0.842910000000     0.447410000000     0.620790000000     0.0445566  
H268     H      0.842820000000     0.044670000000     0.622350000000     0.0445403  
H269     H      0.592910000000     0.043290000000     0.620810000000     0.0442043  
H270     H      0.592820000000     0.446020000000     0.622320000000     0.0448768  
H271     H      0.647660000000     0.446020000000     0.622310000000     0.0448203  
H272     H      0.647570000000     0.043290000000     0.620810000000     0.0442339  
H273     H      0.745380000000     0.293730000000     0.468840000000     0.0446904  
H274     H      0.745090000000     0.196450000000     0.468840000000     0.0447637  
H275     H      0.745080000000     0.196450000000     0.523710000000     0.044746   
H276     H      0.745380000000     0.293730000000     0.523710000000     0.0446668  
H277     H      0.744780000000     0.446730000000     0.468830000000     0.0446885  
H278     H      0.745730000000     0.044010000000     0.468830000000     0.044364   
H279     H      0.745720000000     0.044000000000     0.523710000000     0.0444046  
H280     H      0.744770000000     0.446730000000     0.523700000000     0.0446949  
H281     H      0.994750000000     0.196450000000     0.468840000000     0.0442991  
H282     H      0.495700000000     0.293730000000     0.468850000000     0.0446755  
H283     H      0.495690000000     0.293730000000     0.523710000000     0.0446488  
H284     H      0.994750000000     0.196450000000     0.523710000000     0.0442766  
H285     H      0.897570000000     0.293050000000     0.371760000000     0.0444967  
H286     H      0.897650000000     0.195790000000     0.370190000000     0.0448311  
H287     H      0.842820000000     0.195790000000     0.370190000000     0.0449518  
H288     H      0.842900000000     0.293050000000     0.371760000000     0.0445271  
H289     H      0.592900000000     0.197170000000     0.371740000000     0.04466    
H290     H      0.592820000000     0.294440000000     0.370230000000     0.044809   
H291     H      0.647650000000     0.294440000000     0.370230000000     0.0448405  
H292     H      0.647570000000     0.197170000000     0.371740000000     0.0446027  
H293     H      0.995390000000     0.044010000000     0.468840000000     0.0438975  
H294     H      0.495100000000     0.446730000000     0.468840000000     0.0446786  
H295     H      0.495100000000     0.446730000000     0.523700000000     0.0446718  
H296     H      0.995380000000     0.044010000000     0.523710000000     0.0439044  
H297     H      0.842920000000     0.044020000000     0.370940000000     0.0445287  
H298     H      0.842840000000     0.446740000000     0.370970000000     0.0444915  
H299     H      0.897590000000     0.446680000000     0.370970000000     0.0445612  
H300     H      0.897670000000     0.043960000000     0.370950000000     0.0443739  
H301     H      0.592920000000     0.044030000000     0.370950000000     0.0443074  
H302     H      0.592840000000     0.446750000000     0.370990000000     0.0447351  
H303     H      0.647590000000     0.446690000000     0.370980000000     0.0448681  
H304     H      0.647670000000     0.043960000000     0.370960000000     0.0442413  
H305     H      0.710610000000     0.279240000000     0.773920000000     0.0418689  
H306     H      0.779800000000     0.211100000000     0.773960000000     0.0419439  
H307     H      0.779280000000     0.210540000000     0.718620000000     0.0419141  
H308     H      0.711130000000     0.279740000000     0.718580000000     0.0418264  
H309     H      0.779950000000     0.461330000000     0.773920000000     0.0416695  
H310     H      0.710490000000     0.029220000000     0.773950000000     0.0417079  
H311     H      0.711020000000     0.029780000000     0.718620000000     0.0417899  
H312     H      0.779430000000     0.460840000000     0.718590000000     0.0416609  
H313     H      0.696540000000     0.397560000000     0.870930000000     0.0448388  
H314     H      0.793820000000     0.397640000000     0.870930000000     0.0444945  
H315     H      0.793880000000     0.342890000000     0.870930000000     0.044637   
H316     H      0.696600000000     0.342810000000     0.870930000000     0.0447551  
H317     H      0.793870000000     0.092890000000     0.870990000000     0.0455144  
H318     H      0.696590000000     0.092810000000     0.870990000000     0.0451584  
H319     H      0.696530000000     0.147560000000     0.870990000000     0.0447724  
H320     H      0.793810000000     0.147640000000     0.871000000000     0.0449056  
H321     H      0.960770000000     0.279380000000     0.773930000000     0.0415315  
H322     H      0.529710000000     0.210970000000     0.773960000000     0.0417892  
H323     H      0.529170000000     0.210410000000     0.718620000000     0.0417398  
H324     H      0.961280000000     0.279870000000     0.718600000000     0.0411781  
H325     H      0.960650000000     0.461200000000     0.773920000000     0.0414941  
H326     H      0.529840000000     0.029350000000     0.773960000000     0.0416655  
H327     H      0.529320000000     0.029910000000     0.718620000000     0.0417114  
H328     H      0.961160000000     0.460710000000     0.718590000000     0.0411144  
H329     H      0.947320000000     0.397560000000     0.871720000000     0.0444006  
H330     H      0.544580000000     0.397640000000     0.870180000000     0.044863   
H331     H      0.544580000000     0.342810000000     0.870180000000     0.0448254  
H332     H      0.947320000000     0.342890000000     0.871720000000     0.0444407  
H333     H      0.543200000000     0.092890000000     0.871780000000     0.0451587  
H334     H      0.945930000000     0.092810000000     0.870240000000     0.0453739  
H335     H      0.945930000000     0.147640000000     0.870240000000     0.0448333  
H336     H      0.543200000000     0.147560000000     0.871780000000     0.0447356  
H337     H      0.710630000000     0.211110000000     0.218590000000     0.0417354  
H338     H      0.779820000000     0.279260000000     0.218620000000     0.0416258  
H339     H      0.779310000000     0.279750000000     0.273960000000     0.0416077  
H340     H      0.711160000000     0.210550000000     0.273920000000     0.0417143  
H341     H      0.793850000000     0.245400000000     0.023700000000     0.0447351  
H342     H      0.696570000000     0.245120000000     0.023710000000     0.0447551  
H343     H      0.696570000000     0.245110000000     0.968840000000     0.0447614  
H344     H      0.793850000000     0.245410000000     0.968830000000     0.0447414  
H345     H      0.710770000000     0.029490000000     0.218590000000     0.0417609  
H346     H      0.779700000000     0.461080000000     0.218610000000     0.041677   
H347     H      0.779190000000     0.460590000000     0.273950000000     0.0416707  
H348     H      0.711300000000     0.030040000000     0.273920000000     0.0418031  
H349     H      0.793840000000     0.995670000000     0.023700000000     0.0442357  
H350     H      0.696570000000     0.494720000000     0.023710000000     0.0447189  
H351     H      0.696570000000     0.494720000000     0.968840000000     0.0446951  
H352     H      0.793840000000     0.995670000000     0.968830000000     0.044228   
H353     H      0.695890000000     0.342810000000     0.122370000000     0.0448474  
H354     H      0.793160000000     0.342900000000     0.120830000000     0.0445004  
H355     H      0.793160000000     0.397560000000     0.120830000000     0.0445574  
H356     H      0.695890000000     0.397650000000     0.122370000000     0.0448176  
H357     H      0.794540000000     0.092820000000     0.122300000000     0.045482   
H358     H      0.697280000000     0.092900000000     0.120770000000     0.0452285  
H359     H      0.697280000000     0.147570000000     0.120770000000     0.0447094  
H360     H      0.794540000000     0.147650000000     0.122300000000     0.0450341  
H361     H      0.960530000000     0.279130000000     0.218620000000     0.0415105  
H362     H      0.529980000000     0.211240000000     0.218600000000     0.0417551  
H363     H      0.529450000000     0.210680000000     0.273930000000     0.0417794  
H364     H      0.961040000000     0.279620000000     0.273960000000     0.0411868  
H365     H      0.543900000000     0.245740000000     0.023710000000     0.0447529  
H366     H      0.946630000000     0.244790000000     0.023710000000     0.0446131  
H367     H      0.946630000000     0.244790000000     0.968850000000     0.0446231  
H368     H      0.543900000000     0.245730000000     0.968840000000     0.0447743  
H369     H      0.529870000000     0.461210000000     0.218620000000     0.0418543  
H370     H      0.960670000000     0.029360000000     0.218580000000     0.0417312  
H371     H      0.961190000000     0.029920000000     0.273920000000     0.0414562  
H372     H      0.529340000000     0.460720000000     0.273960000000     0.0418203  
H373     H      0.446630000000     0.495050000000     0.023710000000     0.0446902  
H374     H      0.543900000000     0.995340000000     0.023710000000     0.0442637  
H375     H      0.543900000000     0.995340000000     0.968840000000     0.0442377  
H376     H      0.446620000000     0.495050000000     0.968840000000     0.044657   
H377     H      0.946590000000     0.397570000000     0.121620000000     0.0444679  
H378     H      0.543870000000     0.397640000000     0.121610000000     0.0447246  
H379     H      0.543930000000     0.342890000000     0.121620000000     0.0448624  
H380     H      0.946650000000     0.342820000000     0.121610000000     0.0443489  
H381     H      0.543880000000     0.147650000000     0.121550000000     0.0446681  
H382     H      0.946600000000     0.147570000000     0.121550000000     0.0448694  
H383     H      0.946660000000     0.092820000000     0.121550000000     0.045221   
H384     H      0.543940000000     0.092900000000     0.121550000000     0.0453162  
H385     H      0.897640000000     0.793720000000     0.621570000000     0.0444534  
H386     H      0.897560000000     0.696440000000     0.621600000000     0.0447959  
H387     H      0.842800000000     0.696500000000     0.621600000000     0.0447306  
H388     H      0.842880000000     0.793780000000     0.621580000000     0.0446239  
H389     H      0.592800000000     0.696500000000     0.621590000000     0.0445495  
H390     H      0.592880000000     0.793770000000     0.621570000000     0.0448381  
H391     H      0.647630000000     0.793710000000     0.621560000000     0.0447424  
H392     H      0.647560000000     0.696430000000     0.621590000000     0.04462    
H393     H      0.897660000000     0.544670000000     0.622350000000     0.044789   
H394     H      0.897570000000     0.947410000000     0.620790000000     0.0443537  
H395     H      0.842910000000     0.947410000000     0.620790000000     0.044451   
H396     H      0.842820000000     0.544670000000     0.622350000000     0.0448256  
H397     H      0.592910000000     0.543290000000     0.620810000000     0.0445488  
H398     H      0.592820000000     0.946020000000     0.622320000000     0.0447185  
H399     H      0.647660000000     0.946020000000     0.622310000000     0.0446628  
H400     H      0.647570000000     0.543290000000     0.620810000000     0.0445781  
H401     H      0.745380000000     0.793730000000     0.468840000000     0.0447298  
H402     H      0.745090000000     0.696450000000     0.468840000000     0.0447155  
H403     H      0.745080000000     0.696450000000     0.523710000000     0.0446867  
H404     H      0.745380000000     0.793730000000     0.523710000000     0.0446614  
H405     H      0.744780000000     0.946730000000     0.468830000000     0.0445297  
H406     H      0.745730000000     0.544010000000     0.468830000000     0.0447037  
H407     H      0.745720000000     0.544000000000     0.523710000000     0.044724   
H408     H      0.744770000000     0.946730000000     0.523700000000     0.0445614  
H409     H      0.994750000000     0.696460000000     0.468840000000     0.0442668  
H410     H      0.495700000000     0.793730000000     0.468850000000     0.0446854  
H411     H      0.495690000000     0.793730000000     0.523710000000     0.0446543  
H412     H      0.994750000000     0.696450000000     0.523710000000     0.0442162  
H413     H      0.897570000000     0.793050000000     0.371760000000     0.0445002  
H414     H      0.897650000000     0.695790000000     0.370190000000     0.0447768  
H415     H      0.842820000000     0.695780000000     0.370190000000     0.0448676  
H416     H      0.842900000000     0.793050000000     0.371760000000     0.0445266  
H417     H      0.592900000000     0.697170000000     0.371740000000     0.0445974  
H418     H      0.592820000000     0.794440000000     0.370230000000     0.0448151  
H419     H      0.647650000000     0.794440000000     0.370230000000     0.0448459  
H420     H      0.647570000000     0.697170000000     0.371740000000     0.0445431  
H421     H      0.995390000000     0.544010000000     0.468840000000     0.0442362  
H422     H      0.495100000000     0.946730000000     0.468840000000     0.0445387  
H423     H      0.495100000000     0.946730000000     0.523700000000     0.0445574  
H424     H      0.995380000000     0.544010000000     0.523710000000     0.044221   
H425     H      0.842920000000     0.544020000000     0.370940000000     0.0448662  
H426     H      0.842840000000     0.946740000000     0.370970000000     0.0443499  
H427     H      0.897590000000     0.946680000000     0.370970000000     0.0444184  
H428     H      0.897670000000     0.543960000000     0.370950000000     0.044687   
H429     H      0.592920000000     0.544030000000     0.370950000000     0.0446119  
H430     H      0.592840000000     0.946750000000     0.370990000000     0.0446061  
H431     H      0.647590000000     0.946680000000     0.370980000000     0.0446965  
H432     H      0.647670000000     0.543960000000     0.370960000000     0.0445716  
H433     H      0.710610000000     0.779240000000     0.773920000000     0.0418673  
H434     H      0.779800000000     0.711100000000     0.773960000000     0.0418621  
H435     H      0.779280000000     0.710540000000     0.718620000000     0.0418452  
H436     H      0.711130000000     0.779740000000     0.718580000000     0.0418253  
H437     H      0.779950000000     0.961330000000     0.773920000000     0.0411999  
H438     H      0.710490000000     0.529220000000     0.773950000000     0.0416928  
H439     H      0.711020000000     0.529780000000     0.718620000000     0.0416929  
H440     H      0.779430000000     0.960840000000     0.718590000000     0.0415223  
H441     H      0.696540000000     0.897560000000     0.870930000000     0.0447747  
H442     H      0.793820000000     0.897640000000     0.870930000000     0.0444645  
H443     H      0.793880000000     0.842890000000     0.870930000000     0.0446285  
H444     H      0.696600000000     0.842810000000     0.870930000000     0.0447327  
H445     H      0.793870000000     0.592890000000     0.870990000000     0.0448402  
H446     H      0.696590000000     0.592810000000     0.870990000000     0.0445344  
H447     H      0.696530000000     0.647560000000     0.870990000000     0.0446344  
H448     H      0.793810000000     0.647640000000     0.871000000000     0.0447477  
H449     H      0.960770000000     0.779380000000     0.773930000000     0.0415243  
H450     H      0.529710000000     0.710970000000     0.773960000000     0.0417214  
H451     H      0.529170000000     0.710410000000     0.718620000000     0.0416919  
H452     H      0.961280000000     0.779870000000     0.718600000000     0.0412045  
H453     H      0.960650000000     0.961200000000     0.773920000000     0.0410247  
H454     H      0.529840000000     0.529350000000     0.773960000000     0.0416501  
H455     H      0.529320000000     0.529910000000     0.718620000000     0.0416172  
H456     H      0.961160000000     0.960710000000     0.718590000000     0.0409771  
H457     H      0.947320000000     0.897560000000     0.871720000000     0.0443694  
H458     H      0.544580000000     0.897640000000     0.870180000000     0.044802   
H459     H      0.544580000000     0.842810000000     0.870180000000     0.0448047  
H460     H      0.947320000000     0.842890000000     0.871720000000     0.0444338  
H461     H      0.543200000000     0.592890000000     0.871780000000     0.0445435  
H462     H      0.945930000000     0.592810000000     0.870240000000     0.0447098  
H463     H      0.945930000000     0.647640000000     0.870240000000     0.0446708  
H464     H      0.543200000000     0.647560000000     0.871780000000     0.0445836  
H465     H      0.710630000000     0.711110000000     0.218590000000     0.0416818  
H466     H      0.779820000000     0.779260000000     0.218620000000     0.0416323  
H467     H      0.779310000000     0.779750000000     0.273960000000     0.0416015  
H468     H      0.711160000000     0.710550000000     0.273920000000     0.0416537  
H469     H      0.793850000000     0.745410000000     0.023700000000     0.044686   
H470     H      0.696570000000     0.745120000000     0.023710000000     0.0447058  
H471     H      0.696570000000     0.745110000000     0.968840000000     0.0447125  
H472     H      0.793850000000     0.745410000000     0.968830000000     0.0446926  
H473     H      0.710770000000     0.529490000000     0.218590000000     0.0417195  
H474     H      0.779700000000     0.961080000000     0.218610000000     0.0411863  
H475     H      0.779190000000     0.960590000000     0.273950000000     0.0415076  
H476     H      0.711300000000     0.530040000000     0.273920000000     0.0416833  
H477     H      0.793840000000     0.495670000000     0.023700000000     0.0446916  
H478     H      0.696570000000     0.994730000000     0.023710000000     0.0442709  
H479     H      0.696570000000     0.994720000000     0.968840000000     0.0442428  
H480     H      0.793840000000     0.495670000000     0.968830000000     0.0446806  
H481     H      0.695890000000     0.842820000000     0.122370000000     0.0448426  
H482     H      0.793160000000     0.842900000000     0.120830000000     0.0444966  
H483     H      0.793160000000     0.897560000000     0.120830000000     0.0445078  
H484     H      0.695890000000     0.897650000000     0.122370000000     0.0447591  
H485     H      0.794540000000     0.592810000000     0.122300000000     0.0448273  
H486     H      0.697280000000     0.592900000000     0.120770000000     0.0445893  
H487     H      0.697280000000     0.647570000000     0.120770000000     0.0445658  
H488     H      0.794540000000     0.647650000000     0.122300000000     0.0448884  
H489     H      0.960530000000     0.779130000000     0.218620000000     0.0415122  
H490     H      0.529980000000     0.711240000000     0.218600000000     0.0416936  
H491     H      0.529450000000     0.710680000000     0.273930000000     0.0417019  
H492     H      0.961040000000     0.779620000000     0.273960000000     0.04117    
H493     H      0.543900000000     0.745730000000     0.023710000000     0.0447051  
H494     H      0.946630000000     0.744790000000     0.023710000000     0.0445632  
H495     H      0.946630000000     0.744780000000     0.968850000000     0.044572   
H496     H      0.543900000000     0.745730000000     0.968840000000     0.0447258  
H497     H      0.529870000000     0.961210000000     0.218620000000     0.0413596  
H498     H      0.960670000000     0.529360000000     0.218580000000     0.0416893  
H499     H      0.961190000000     0.529920000000     0.273920000000     0.0413311  
H500     H      0.529340000000     0.960720000000     0.273960000000     0.0416578  
H501     H      0.446630000000     0.995050000000     0.023710000000     0.0442392  
H502     H      0.543900000000     0.495350000000     0.023710000000     0.0447182  
H503     H      0.543900000000     0.495340000000     0.968840000000     0.0446974  
H504     H      0.446620000000     0.995050000000     0.968840000000     0.0442107  
H505     H      0.946590000000     0.897570000000     0.121620000000     0.0444083  
H506     H      0.543870000000     0.897650000000     0.121610000000     0.0446681  
H507     H      0.543930000000     0.842890000000     0.121620000000     0.0448603  
H508     H      0.946650000000     0.842820000000     0.121610000000     0.0443429  
H509     H      0.543880000000     0.647650000000     0.121550000000     0.0445187  
H510     H      0.946600000000     0.647570000000     0.121550000000     0.0447238  
H511     H      0.946660000000     0.592820000000     0.121550000000     0.0445838  
H512     H      0.543940000000     0.592900000000     0.121550000000     0.0446582  
O1       O      0.020430000000     0.994440000000     0.167260000000    -0.379316   
O2       O      0.020390000000     0.995520000000     0.075830000000    -0.379916   
O3       O      0.020430000000     0.040790000000     0.121950000000    -0.375732   
O4       O      0.020360000000     0.449550000000     0.121150000000    -0.380099   
O5       O      0.470110000000     0.449680000000     0.121990000000    -0.382975   
O6       O      0.470170000000     0.040910000000     0.121120000000    -0.380517   
O7       O      0.470140000000     0.494910000000     0.075840000000    -0.383211   
O8       O      0.470110000000     0.496070000000     0.167260000000    -0.38229    
O9       O      0.020400000000     0.245560000000     0.075840000000    -0.379474   
O10      O      0.020420000000     0.244400000000     0.167260000000    -0.378482   
O11      O      0.020370000000     0.199560000000     0.121120000000    -0.380163   
O12      O      0.020420000000     0.290790000000     0.121990000000    -0.379026   
O13      O      0.470160000000     0.290910000000     0.121150000000    -0.383946   
O14      O      0.470110000000     0.199680000000     0.121950000000    -0.382674   
O15      O      0.470100000000     0.246030000000     0.167260000000    -0.382258   
O16      O      0.470140000000     0.244940000000     0.075830000000    -0.383138   
O17      O      0.270380000000     0.494250000000     0.167250000000    -0.382334   
O18      O      0.270340000000     0.495380000000     0.075830000000    -0.383314   
O19      O      0.270780000000     0.040630000000     0.121970000000    -0.379153   
O20      O      0.269910000000     0.449400000000     0.121120000000    -0.384146   
O21      O      0.219660000000     0.449840000000     0.122010000000    -0.382632   
O22      O      0.220520000000     0.041060000000     0.121080000000    -0.380651   
O23      O      0.220080000000     0.495050000000     0.075830000000    -0.383178   
O24      O      0.220070000000     0.496250000000     0.167260000000    -0.382231   
O25      O      0.270340000000     0.245100000000     0.075830000000    -0.383257   
O26      O      0.270380000000     0.246210000000     0.167250000000    -0.382071   
O27      O      0.270780000000     0.199830000000     0.121960000000    -0.38239    
O28      O      0.269910000000     0.291060000000     0.121120000000    -0.384094   
O29      O      0.219660000000     0.290630000000     0.122000000000    -0.382469   
O30      O      0.220520000000     0.199400000000     0.121090000000    -0.384034   
O31      O      0.220070000000     0.244220000000     0.167250000000    -0.382128   
O32      O      0.220080000000     0.245400000000     0.075830000000    -0.383227   
O33      O      0.020390000000     0.495060000000     0.916720000000    -0.379519   
O34      O      0.020410000000     0.496240000000     0.825290000000    -0.378396   
O35      O      0.019950000000     0.041050000000     0.871450000000    -0.377129   
O36      O      0.020810000000     0.449830000000     0.870540000000    -0.378891   
O37      O      0.470560000000     0.449390000000     0.871420000000    -0.384093   
O38      O      0.469700000000     0.040620000000     0.870580000000    -0.379142   
O39      O      0.470100000000     0.494250000000     0.825290000000    -0.382181   
O40      O      0.470130000000     0.495360000000     0.916720000000    -0.383296   
O41      O      0.020390000000     0.245410000000     0.916720000000    -0.379463   
O42      O      0.020400000000     0.244200000000     0.825290000000    -0.378482   
O43      O      0.020810000000     0.290620000000     0.870530000000    -0.378881   
O44      O      0.019950000000     0.199390000000     0.871460000000    -0.380281   
O45      O      0.469700000000     0.199830000000     0.870580000000    -0.382577   
O46      O      0.470560000000     0.291050000000     0.871430000000    -0.3841     
O47      O      0.470090000000     0.246200000000     0.825300000000    -0.382103   
O48      O      0.470130000000     0.245080000000     0.916720000000    -0.383264   
O49      O      0.220080000000     0.494900000000     0.916710000000    -0.38324    
O50      O      0.220050000000     0.496060000000     0.825290000000    -0.382234   
O51      O      0.220050000000     0.449670000000     0.870550000000    -0.382657   
O52      O      0.220110000000     0.040900000000     0.871430000000    -0.380713   
O53      O      0.270360000000     0.040780000000     0.870590000000    -0.379386   
O54      O      0.270310000000     0.449550000000     0.871400000000    -0.38394    
O55      O      0.270370000000     0.494430000000     0.825290000000    -0.382216   
O56      O      0.270330000000     0.495520000000     0.916710000000    -0.383441   
O57      O      0.270330000000     0.245540000000     0.916710000000    -0.38341    
O58      O      0.270370000000     0.244390000000     0.825290000000    -0.382205   
O59      O      0.270370000000     0.290780000000     0.870560000000    -0.382815   
O60      O      0.270300000000     0.199550000000     0.871430000000    -0.383741   
O61      O      0.220040000000     0.199670000000     0.870590000000    -0.382679   
O62      O      0.220110000000     0.290900000000     0.871390000000    -0.3838     
O63      O      0.220040000000     0.246020000000     0.825290000000    -0.382058   
O64      O      0.220080000000     0.244940000000     0.916710000000    -0.383289   
O65      O      0.994950000000     0.470230000000     0.416720000000    -0.38355    
O66      O      0.996080000000     0.470180000000     0.325290000000    -0.383402   
O67      O      0.040930000000     0.470260000000     0.371420000000    -0.380543   
O68      O      0.449700000000     0.470190000000     0.370580000000    -0.382793   
O69      O      0.449580000000     0.020450000000     0.371400000000    -0.380139   
O70      O      0.040810000000     0.020510000000     0.370570000000    -0.375772   
O71      O      0.994440000000     0.020500000000     0.325280000000    -0.379188   
O72      O      0.995550000000     0.020490000000     0.416710000000    -0.379986   
O73      O      0.996240000000     0.219970000000     0.325280000000    -0.383275   
O74      O      0.995070000000     0.219970000000     0.416710000000    -0.383461   
O75      O      0.449840000000     0.219550000000     0.370550000000    -0.382446   
O76      O      0.041060000000     0.220420000000     0.371440000000    -0.380686   
O77      O      0.040630000000     0.270670000000     0.370570000000    -0.379271   
O78      O      0.449400000000     0.269810000000     0.371450000000    -0.383989   
O79      O      0.995400000000     0.270230000000     0.416720000000    -0.38358    
O80      O      0.994240000000     0.270280000000     0.325300000000    -0.383047   
O81      O      0.246060000000     0.470180000000     0.325290000000    -0.382283   
O82      O      0.244950000000     0.470230000000     0.416710000000    -0.383159   
O83      O      0.199700000000     0.470190000000     0.370580000000    -0.382617   
O84      O      0.290930000000     0.470250000000     0.371420000000    -0.383935   
O85      O      0.290810000000     0.020510000000     0.370560000000    -0.378943   
O86      O      0.199580000000     0.020450000000     0.371410000000    -0.380175   
O87      O      0.245570000000     0.020490000000     0.416710000000    -0.379583   
O88      O      0.244440000000     0.020500000000     0.325280000000    -0.378363   
O89      O      0.244240000000     0.219970000000     0.325280000000    -0.382164   
O90      O      0.245390000000     0.219970000000     0.416710000000    -0.383053   
O91      O      0.199410000000     0.220420000000     0.371430000000    -0.383983   
O92      O      0.290630000000     0.219550000000     0.370550000000    -0.382429   
O93      O      0.291060000000     0.269810000000     0.371440000000    -0.384177   
O94      O      0.199840000000     0.270670000000     0.370570000000    -0.382436   
O95      O      0.245080000000     0.270230000000     0.416720000000    -0.383232   
O96      O      0.246230000000     0.270280000000     0.325300000000    -0.382241   
O97      O      0.994250000000     0.470180000000     0.667240000000    -0.382988   
O98      O      0.995390000000     0.470230000000     0.575820000000    -0.3837     
O99      O      0.040640000000     0.469790000000     0.621980000000    -0.379236   
O100     O      0.449410000000     0.470650000000     0.621100000000    -0.384113   
O101     O      0.449840000000     0.020900000000     0.621990000000    -0.378751   
O102     O      0.041070000000     0.020040000000     0.621120000000    -0.377207   
O103     O      0.995090000000     0.020490000000     0.575830000000    -0.379835   
O104     O      0.996230000000     0.020480000000     0.667260000000    -0.379705   
O105     O      0.996040000000     0.219960000000     0.667270000000    -0.383385   
O106     O      0.994910000000     0.219970000000     0.575840000000    -0.38352    
O107     O      0.040890000000     0.220010000000     0.621140000000    -0.38065    
O108     O      0.449660000000     0.219950000000     0.621980000000    -0.382665   
O109     O      0.449540000000     0.270210000000     0.621130000000    -0.383857   
O110     O      0.040780000000     0.270260000000     0.621970000000    -0.379369   
O111     O      0.995530000000     0.270220000000     0.575830000000    -0.383638   
O112     O      0.994410000000     0.270280000000     0.667250000000    -0.38312    
O113     O      0.244240000000     0.020480000000     0.667260000000    -0.378482   
O114     O      0.245410000000     0.020490000000     0.575830000000    -0.379483   
O115     O      0.199410000000     0.020040000000     0.621100000000    -0.380323   
O116     O      0.290640000000     0.020900000000     0.622000000000    -0.378877   
O117     O      0.291070000000     0.470650000000     0.621090000000    -0.384166   
O118     O      0.199840000000     0.469790000000     0.621980000000    -0.382478   
O119     O      0.245080000000     0.470230000000     0.575820000000    -0.383329   
O120     O      0.246230000000     0.470180000000     0.667240000000    -0.382194   
O121     O      0.244400000000     0.270280000000     0.667250000000    -0.382232   
O122     O      0.245520000000     0.270220000000     0.575830000000    -0.383288   
O123     O      0.199540000000     0.270200000000     0.621120000000    -0.383804   
O124     O      0.290770000000     0.270270000000     0.621970000000    -0.382757   
O125     O      0.290900000000     0.220010000000     0.621140000000    -0.383685   
O126     O      0.199670000000     0.219950000000     0.621970000000    -0.382867   
O127     O      0.244920000000     0.219970000000     0.575840000000    -0.383275   
O128     O      0.246030000000     0.219960000000     0.667270000000    -0.382163   
O129     O      0.020430000000     0.494440000000     0.167260000000    -0.378492   
O130     O      0.020390000000     0.495510000000     0.075830000000    -0.37959    
O131     O      0.020430000000     0.540790000000     0.121950000000    -0.379052   
O132     O      0.020360000000     0.949560000000     0.121150000000    -0.379612   
O133     O      0.470110000000     0.949680000000     0.121990000000    -0.382429   
O134     O      0.470170000000     0.540910000000     0.121120000000    -0.383844   
O135     O      0.470140000000     0.994910000000     0.075840000000    -0.383495   
O136     O      0.470110000000     0.996070000000     0.167260000000    -0.383484   
O137     O      0.020400000000     0.745560000000     0.075840000000    -0.379501   
O138     O      0.020420000000     0.744400000000     0.167260000000    -0.378483   
O139     O      0.020370000000     0.699560000000     0.121120000000    -0.380231   
O140     O      0.020420000000     0.790790000000     0.121990000000    -0.378997   
O141     O      0.470160000000     0.790910000000     0.121150000000    -0.383838   
O142     O      0.470110000000     0.699680000000     0.121950000000    -0.382824   
O143     O      0.470100000000     0.746030000000     0.167260000000    -0.382271   
O144     O      0.470140000000     0.744940000000     0.075830000000    -0.383169   
O145     O      0.270380000000     0.994250000000     0.167250000000    -0.383137   
O146     O      0.270340000000     0.995380000000     0.075830000000    -0.383625   
O147     O      0.270780000000     0.540630000000     0.121970000000    -0.382414   
O148     O      0.269910000000     0.949400000000     0.121120000000    -0.383544   
O149     O      0.219660000000     0.949830000000     0.122010000000    -0.382074   
O150     O      0.220520000000     0.541060000000     0.121080000000    -0.383977   
O151     O      0.220080000000     0.995050000000     0.075830000000    -0.383456   
O152     O      0.220070000000     0.996250000000     0.167260000000    -0.383415   
O153     O      0.270340000000     0.745100000000     0.075830000000    -0.383288   
O154     O      0.270380000000     0.746200000000     0.167250000000    -0.382091   
O155     O      0.270780000000     0.699830000000     0.121960000000    -0.382439   
O156     O      0.269910000000     0.791060000000     0.121120000000    -0.384089   
O157     O      0.219660000000     0.790630000000     0.122000000000    -0.382455   
O158     O      0.220520000000     0.699400000000     0.121090000000    -0.384088   
O159     O      0.220070000000     0.744220000000     0.167250000000    -0.382131   
O160     O      0.220080000000     0.745400000000     0.075830000000    -0.383256   
O161     O      0.020390000000     0.995050000000     0.916720000000    -0.379812   
O162     O      0.020410000000     0.996240000000     0.825290000000    -0.379619   
O163     O      0.019950000000     0.541050000000     0.871450000000    -0.380411   
O164     O      0.020810000000     0.949830000000     0.870540000000    -0.378344   
O165     O      0.470560000000     0.949400000000     0.871420000000    -0.383652   
O166     O      0.469700000000     0.540620000000     0.870580000000    -0.382555   
O167     O      0.470100000000     0.994250000000     0.825290000000    -0.382977   
O168     O      0.470130000000     0.995360000000     0.916720000000    -0.383616   
O169     O      0.020390000000     0.745410000000     0.916720000000    -0.379502   
O170     O      0.020400000000     0.744200000000     0.825290000000    -0.378501   
O171     O      0.020810000000     0.790620000000     0.870530000000    -0.378888   
O172     O      0.019950000000     0.699400000000     0.871460000000    -0.38037    
O173     O      0.469700000000     0.699830000000     0.870580000000    -0.382613   
O174     O      0.470560000000     0.791050000000     0.871430000000    -0.384084   
O175     O      0.470090000000     0.746200000000     0.825300000000    -0.382119   
O176     O      0.470130000000     0.745080000000     0.916720000000    -0.383292   
O177     O      0.220080000000     0.994900000000     0.916710000000    -0.383529   
O178     O      0.220050000000     0.996060000000     0.825290000000    -0.38345    
O179     O      0.220050000000     0.949670000000     0.870550000000    -0.382145   
O180     O      0.220110000000     0.540900000000     0.871430000000    -0.384028   
O181     O      0.270360000000     0.540780000000     0.870590000000    -0.382744   
O182     O      0.270310000000     0.949550000000     0.871400000000    -0.383394   
O183     O      0.270370000000     0.994430000000     0.825290000000    -0.383001   
O184     O      0.270330000000     0.995520000000     0.916710000000    -0.38375    
O185     O      0.270330000000     0.745550000000     0.916710000000    -0.383436   
O186     O      0.270370000000     0.744390000000     0.825290000000    -0.382216   
O187     O      0.270370000000     0.790780000000     0.870560000000    -0.382802   
O188     O      0.270300000000     0.699550000000     0.871430000000    -0.383819   
O189     O      0.220040000000     0.699670000000     0.870590000000    -0.382744   
O190     O      0.220110000000     0.790900000000     0.871390000000    -0.383799   
O191     O      0.220040000000     0.746020000000     0.825290000000    -0.382068   
O192     O      0.220080000000     0.744940000000     0.916710000000    -0.383319   
O193     O      0.994950000000     0.970240000000     0.416720000000    -0.382761   
O194     O      0.996080000000     0.970180000000     0.325290000000    -0.382439   
O195     O      0.040930000000     0.970260000000     0.371420000000    -0.379677   
O196     O      0.449700000000     0.970190000000     0.370580000000    -0.381881   
O197     O      0.449580000000     0.520450000000     0.371400000000    -0.383815   
O198     O      0.040810000000     0.520510000000     0.370570000000    -0.379572   
O199     O      0.994440000000     0.520500000000     0.325280000000    -0.382951   
O200     O      0.995550000000     0.520490000000     0.416710000000    -0.38362    
O201     O      0.996240000000     0.719980000000     0.325280000000    -0.383467   
O202     O      0.995070000000     0.719970000000     0.416710000000    -0.383482   
O203     O      0.449840000000     0.719550000000     0.370550000000    -0.382473   
O204     O      0.041060000000     0.720420000000     0.371440000000    -0.380708   
O205     O      0.040630000000     0.770670000000     0.370570000000    -0.379263   
O206     O      0.449400000000     0.769810000000     0.371450000000    -0.383981   
O207     O      0.995400000000     0.770230000000     0.416720000000    -0.383572   
O208     O      0.994240000000     0.770280000000     0.325300000000    -0.383105   
O209     O      0.246060000000     0.970180000000     0.325290000000    -0.381319   
O210     O      0.244950000000     0.970240000000     0.416710000000    -0.382371   
O211     O      0.199700000000     0.970190000000     0.370580000000    -0.381707   
O212     O      0.290930000000     0.970250000000     0.371420000000    -0.382981   
O213     O      0.290810000000     0.520510000000     0.370560000000    -0.382667   
O214     O      0.199580000000     0.520450000000     0.371410000000    -0.383839   
O215     O      0.245570000000     0.520490000000     0.416710000000    -0.383217   
O216     O      0.244440000000     0.520500000000     0.325280000000    -0.382126   
O217     O      0.244240000000     0.719970000000     0.325280000000    -0.382202   
O218     O      0.245390000000     0.719970000000     0.416710000000    -0.383066   
O219     O      0.199410000000     0.720420000000     0.371430000000    -0.384002   
O220     O      0.290630000000     0.719550000000     0.370550000000    -0.382458   
O221     O      0.291060000000     0.769810000000     0.371440000000    -0.384169   
O222     O      0.199840000000     0.770670000000     0.370570000000    -0.382428   
O223     O      0.245080000000     0.770230000000     0.416720000000    -0.383217   
O224     O      0.246230000000     0.770280000000     0.325300000000    -0.382236   
O225     O      0.994250000000     0.970180000000     0.667240000000    -0.382019   
O226     O      0.995390000000     0.970230000000     0.575820000000    -0.382754   
O227     O      0.040640000000     0.969790000000     0.621980000000    -0.378332   
O228     O      0.449410000000     0.970650000000     0.621100000000    -0.383143   
O229     O      0.449840000000     0.520900000000     0.621990000000    -0.382495   
O230     O      0.041070000000     0.520040000000     0.621120000000    -0.380854   
O231     O      0.995090000000     0.520490000000     0.575830000000    -0.38353    
O232     O      0.996230000000     0.520480000000     0.667260000000    -0.383478   
O233     O      0.996040000000     0.719960000000     0.667270000000    -0.383506   
O234     O      0.994910000000     0.719970000000     0.575840000000    -0.383539   
O235     O      0.040890000000     0.720010000000     0.621140000000    -0.380578   
O236     O      0.449660000000     0.719950000000     0.621980000000    -0.382692   
O237     O      0.449540000000     0.770210000000     0.621130000000    -0.383849   
O238     O      0.040780000000     0.770260000000     0.621970000000    -0.379445   
O239     O      0.995530000000     0.770220000000     0.575830000000    -0.383627   
O240     O      0.994410000000     0.770280000000     0.667250000000    -0.383023   
O241     O      0.244240000000     0.520480000000     0.667260000000    -0.382256   
O242     O      0.245410000000     0.520490000000     0.575830000000    -0.383179   
O243     O      0.199410000000     0.520040000000     0.621100000000    -0.383984   
O244     O      0.290640000000     0.520900000000     0.622000000000    -0.382621   
O245     O      0.291070000000     0.970650000000     0.621090000000    -0.383195   
O246     O      0.199840000000     0.969790000000     0.621980000000    -0.381568   
O247     O      0.245080000000     0.970230000000     0.575820000000    -0.382385   
O248     O      0.246230000000     0.970180000000     0.667240000000    -0.381226   
O249     O      0.244400000000     0.770280000000     0.667250000000    -0.382224   
O250     O      0.245520000000     0.770220000000     0.575830000000    -0.383281   
O251     O      0.199540000000     0.770200000000     0.621120000000    -0.383798   
O252     O      0.290770000000     0.770270000000     0.621970000000    -0.382744   
O253     O      0.290900000000     0.720010000000     0.621140000000    -0.383712   
O254     O      0.199670000000     0.719950000000     0.621970000000    -0.382887   
O255     O      0.244920000000     0.719970000000     0.575840000000    -0.383293   
O256     O      0.246030000000     0.719960000000     0.667270000000    -0.382199   
O257     O      0.520430000000     0.994440000000     0.167260000000    -0.383078   
O258     O      0.520400000000     0.995520000000     0.075830000000    -0.383452   
O259     O      0.520430000000     0.040790000000     0.121950000000    -0.379441   
O260     O      0.520360000000     0.449550000000     0.121150000000    -0.383834   
O261     O      0.970100000000     0.449680000000     0.121990000000    -0.381903   
O262     O      0.970170000000     0.040910000000     0.121120000000    -0.37956    
O263     O      0.970140000000     0.494910000000     0.075840000000    -0.382333   
O264     O      0.970110000000     0.496070000000     0.167260000000    -0.38132    
O265     O      0.520400000000     0.245560000000     0.075840000000    -0.383183   
O266     O      0.520420000000     0.244400000000     0.167260000000    -0.382268   
O267     O      0.520360000000     0.199560000000     0.121120000000    -0.38399    
O268     O      0.520420000000     0.290790000000     0.121990000000    -0.382709   
O269     O      0.970170000000     0.290910000000     0.121150000000    -0.383115   
O270     O      0.970110000000     0.199680000000     0.121950000000    -0.381679   
O271     O      0.970100000000     0.246030000000     0.167260000000    -0.381268   
O272     O      0.970140000000     0.244940000000     0.075830000000    -0.382174   
O273     O      0.770380000000     0.494250000000     0.167250000000    -0.382328   
O274     O      0.770340000000     0.495380000000     0.075830000000    -0.383306   
O275     O      0.770780000000     0.040630000000     0.121970000000    -0.379143   
O276     O      0.769910000000     0.449400000000     0.121120000000    -0.384227   
O277     O      0.719660000000     0.449840000000     0.122010000000    -0.382569   
O278     O      0.720520000000     0.041060000000     0.121080000000    -0.380667   
O279     O      0.720080000000     0.495050000000     0.075830000000    -0.383192   
O280     O      0.720070000000     0.496250000000     0.167260000000    -0.382265   
O281     O      0.770340000000     0.245100000000     0.075830000000    -0.383274   
O282     O      0.770380000000     0.246210000000     0.167250000000    -0.382086   
O283     O      0.770780000000     0.199830000000     0.121960000000    -0.382402   
O284     O      0.769910000000     0.291060000000     0.121120000000    -0.384107   
O285     O      0.719660000000     0.290630000000     0.122000000000    -0.382511   
O286     O      0.720520000000     0.199400000000     0.121090000000    -0.384071   
O287     O      0.720070000000     0.244220000000     0.167250000000    -0.382181   
O288     O      0.720080000000     0.245400000000     0.075830000000    -0.383264   
O289     O      0.520390000000     0.495060000000     0.916720000000    -0.383214   
O290     O      0.520410000000     0.496240000000     0.825290000000    -0.382167   
O291     O      0.519950000000     0.041050000000     0.871450000000    -0.38077    
O292     O      0.520810000000     0.449830000000     0.870540000000    -0.38263    
O293     O      0.970560000000     0.449390000000     0.871420000000    -0.383125   
O294     O      0.969700000000     0.040620000000     0.870580000000    -0.37824    
O295     O      0.970100000000     0.494250000000     0.825290000000    -0.381213   
O296     O      0.970130000000     0.495360000000     0.916720000000    -0.382352   
O297     O      0.520390000000     0.245410000000     0.916720000000    -0.383145   
O298     O      0.520400000000     0.244200000000     0.825290000000    -0.382189   
O299     O      0.520810000000     0.290620000000     0.870530000000    -0.382617   
O300     O      0.519950000000     0.199390000000     0.871460000000    -0.383937   
O301     O      0.969700000000     0.199830000000     0.870580000000    -0.381671   
O302     O      0.970560000000     0.291050000000     0.871430000000    -0.383137   
O303     O      0.970100000000     0.246200000000     0.825300000000    -0.381292   
O304     O      0.970130000000     0.245080000000     0.916720000000    -0.382332   
O305     O      0.720080000000     0.494900000000     0.916710000000    -0.38334    
O306     O      0.720050000000     0.496060000000     0.825290000000    -0.382274   
O307     O      0.720050000000     0.449670000000     0.870550000000    -0.382688   
O308     O      0.720110000000     0.040900000000     0.871430000000    -0.38064    
O309     O      0.770360000000     0.040780000000     0.870590000000    -0.379462   
O310     O      0.770310000000     0.449550000000     0.871400000000    -0.383935   
O311     O      0.770370000000     0.494430000000     0.825290000000    -0.38221    
O312     O      0.770330000000     0.495520000000     0.916710000000    -0.383347   
O313     O      0.770340000000     0.245540000000     0.916710000000    -0.383254   
O314     O      0.770370000000     0.244390000000     0.825290000000    -0.382258   
O315     O      0.770370000000     0.290780000000     0.870560000000    -0.382804   
O316     O      0.770300000000     0.199550000000     0.871430000000    -0.383796   
O317     O      0.720050000000     0.199670000000     0.870590000000    -0.382854   
O318     O      0.720110000000     0.290900000000     0.871390000000    -0.383832   
O319     O      0.720050000000     0.246020000000     0.825290000000    -0.382249   
O320     O      0.720080000000     0.244940000000     0.916710000000    -0.383255   
O321     O      0.494950000000     0.470230000000     0.416720000000    -0.383264   
O322     O      0.496070000000     0.470180000000     0.325290000000    -0.382211   
O323     O      0.540930000000     0.470260000000     0.371420000000    -0.383882   
O324     O      0.949700000000     0.470190000000     0.370580000000    -0.382284   
O325     O      0.949580000000     0.020450000000     0.371400000000    -0.379609   
O326     O      0.540810000000     0.020510000000     0.370570000000    -0.379109   
O327     O      0.494440000000     0.020500000000     0.325280000000    -0.378377   
O328     O      0.495550000000     0.020490000000     0.416710000000    -0.379667   
O329     O      0.496240000000     0.219970000000     0.325280000000    -0.382066   
O330     O      0.495070000000     0.219970000000     0.416710000000    -0.383161   
O331     O      0.949840000000     0.219550000000     0.370550000000    -0.381941   
O332     O      0.541070000000     0.220420000000     0.371440000000    -0.383975   
O333     O      0.540630000000     0.270670000000     0.370570000000    -0.382634   
O334     O      0.949410000000     0.269810000000     0.371450000000    -0.383504   
O335     O      0.495400000000     0.270230000000     0.416720000000    -0.383259   
O336     O      0.494240000000     0.270280000000     0.325300000000    -0.382232   
O337     O      0.746070000000     0.470180000000     0.325290000000    -0.382291   
O338     O      0.744950000000     0.470230000000     0.416710000000    -0.383188   
O339     O      0.699700000000     0.470190000000     0.370580000000    -0.382681   
O340     O      0.790930000000     0.470250000000     0.371420000000    -0.383915   
O341     O      0.790810000000     0.020510000000     0.370560000000    -0.378935   
O342     O      0.699580000000     0.020450000000     0.371410000000    -0.380222   
O343     O      0.745560000000     0.020490000000     0.416710000000    -0.379614   
O344     O      0.744440000000     0.020500000000     0.325280000000    -0.378366   
O345     O      0.744240000000     0.219970000000     0.325280000000    -0.382171   
O346     O      0.745390000000     0.219970000000     0.416710000000    -0.383083   
O347     O      0.699410000000     0.220420000000     0.371430000000    -0.384162   
O348     O      0.790630000000     0.219550000000     0.370550000000    -0.382321   
O349     O      0.791070000000     0.269810000000     0.371440000000    -0.384005   
O350     O      0.699840000000     0.270670000000     0.370570000000    -0.382598   
O351     O      0.745080000000     0.270230000000     0.416720000000    -0.383251   
O352     O      0.746230000000     0.270280000000     0.325300000000    -0.382245   
O353     O      0.494250000000     0.470180000000     0.667240000000    -0.382205   
O354     O      0.495390000000     0.470230000000     0.575820000000    -0.38339    
O355     O      0.540640000000     0.469790000000     0.621980000000    -0.382601   
O356     O      0.949410000000     0.470650000000     0.621100000000    -0.383568   
O357     O      0.949840000000     0.020900000000     0.621990000000    -0.378251   
O358     O      0.541070000000     0.020040000000     0.621120000000    -0.380508   
O359     O      0.495090000000     0.020490000000     0.575830000000    -0.379538   
O360     O      0.496230000000     0.020480000000     0.667260000000    -0.378481   
O361     O      0.496040000000     0.219960000000     0.667270000000    -0.382173   
O362     O      0.494910000000     0.219970000000     0.575840000000    -0.383232   
O363     O      0.540890000000     0.220010000000     0.621140000000    -0.383967   
O364     O      0.949660000000     0.219950000000     0.621980000000    -0.382124   
O365     O      0.949550000000     0.270210000000     0.621130000000    -0.383347   
O366     O      0.540780000000     0.270260000000     0.621970000000    -0.38271    
O367     O      0.495530000000     0.270220000000     0.575830000000    -0.383316   
O368     O      0.494410000000     0.270280000000     0.667250000000    -0.382325   
O369     O      0.744230000000     0.020480000000     0.667260000000    -0.37848    
O370     O      0.745410000000     0.020490000000     0.575830000000    -0.379509   
O371     O      0.699410000000     0.020040000000     0.621100000000    -0.380367   
O372     O      0.790640000000     0.020900000000     0.622000000000    -0.378871   
O373     O      0.791070000000     0.470650000000     0.621090000000    -0.384149   
O374     O      0.699840000000     0.469790000000     0.621980000000    -0.38254    
O375     O      0.745080000000     0.470230000000     0.575820000000    -0.383359   
O376     O      0.746230000000     0.470180000000     0.667240000000    -0.382206   
O377     O      0.744400000000     0.270280000000     0.667250000000    -0.382238   
O378     O      0.745530000000     0.270220000000     0.575830000000    -0.383314   
O379     O      0.699540000000     0.270200000000     0.621120000000    -0.383864   
O380     O      0.790770000000     0.270270000000     0.621970000000    -0.382743   
O381     O      0.790900000000     0.220010000000     0.621140000000    -0.383765   
O382     O      0.699670000000     0.219950000000     0.621970000000    -0.382834   
O383     O      0.744920000000     0.219970000000     0.575840000000    -0.383304   
O384     O      0.746030000000     0.219960000000     0.667270000000    -0.382175   
O385     O      0.520430000000     0.494440000000     0.167260000000    -0.382259   
O386     O      0.520400000000     0.495510000000     0.075830000000    -0.383132   
O387     O      0.520430000000     0.540790000000     0.121950000000    -0.382782   
O388     O      0.520360000000     0.949560000000     0.121150000000    -0.38334    
O389     O      0.970100000000     0.949680000000     0.121990000000    -0.381361   
O390     O      0.970170000000     0.540910000000     0.121120000000    -0.382879   
O391     O      0.970140000000     0.994910000000     0.075840000000    -0.382618   
O392     O      0.970110000000     0.996070000000     0.167260000000    -0.382514   
O393     O      0.520400000000     0.745560000000     0.075840000000    -0.383211   
O394     O      0.520420000000     0.744400000000     0.167260000000    -0.382271   
O395     O      0.520360000000     0.699560000000     0.121120000000    -0.384062   
O396     O      0.520420000000     0.790790000000     0.121990000000    -0.38268    
O397     O      0.970170000000     0.790910000000     0.121150000000    -0.383008   
O398     O      0.970110000000     0.699680000000     0.121950000000    -0.381828   
O399     O      0.970100000000     0.746030000000     0.167260000000    -0.38128    
O400     O      0.970140000000     0.744940000000     0.075830000000    -0.382204   
O401     O      0.770380000000     0.994250000000     0.167250000000    -0.383131   
O402     O      0.770340000000     0.995380000000     0.075830000000    -0.383616   
O403     O      0.770780000000     0.540630000000     0.121970000000    -0.382405   
O404     O      0.769910000000     0.949400000000     0.121120000000    -0.383625   
O405     O      0.719660000000     0.949830000000     0.122010000000    -0.382011   
O406     O      0.720520000000     0.541060000000     0.121080000000    -0.383996   
O407     O      0.720080000000     0.995050000000     0.075830000000    -0.38347    
O408     O      0.720070000000     0.996250000000     0.167260000000    -0.383451   
O409     O      0.770340000000     0.745100000000     0.075830000000    -0.383304   
O410     O      0.770380000000     0.746200000000     0.167250000000    -0.382106   
O411     O      0.770780000000     0.699830000000     0.121960000000    -0.38245    
O412     O      0.769910000000     0.791060000000     0.121120000000    -0.384102   
O413     O      0.719660000000     0.790630000000     0.122000000000    -0.382497   
O414     O      0.720520000000     0.699400000000     0.121090000000    -0.384125   
O415     O      0.720070000000     0.744220000000     0.167250000000    -0.382184   
O416     O      0.720080000000     0.745400000000     0.075830000000    -0.383292   
O417     O      0.520390000000     0.995050000000     0.916720000000    -0.3835     
O418     O      0.520410000000     0.996240000000     0.825290000000    -0.383387   
O419     O      0.519950000000     0.541050000000     0.871450000000    -0.384071   
O420     O      0.520810000000     0.949830000000     0.870540000000    -0.382077   
O421     O      0.970560000000     0.949400000000     0.871420000000    -0.382687   
O422     O      0.969700000000     0.540620000000     0.870580000000    -0.381646   
O423     O      0.970100000000     0.994250000000     0.825290000000    -0.38201    
O424     O      0.970130000000     0.995360000000     0.916720000000    -0.382673   
O425     O      0.520390000000     0.745410000000     0.916720000000    -0.383186   
O426     O      0.520400000000     0.744200000000     0.825290000000    -0.38221    
O427     O      0.520810000000     0.790620000000     0.870530000000    -0.382624   
O428     O      0.519950000000     0.699400000000     0.871460000000    -0.384029   
O429     O      0.969700000000     0.699830000000     0.870580000000    -0.381707   
O430     O      0.970560000000     0.791050000000     0.871430000000    -0.38312    
O431     O      0.970100000000     0.746200000000     0.825300000000    -0.381308   
O432     O      0.970130000000     0.745080000000     0.916720000000    -0.38236    
O433     O      0.720080000000     0.994900000000     0.916710000000    -0.383629   
O434     O      0.720050000000     0.996060000000     0.825290000000    -0.38349    
O435     O      0.720050000000     0.949670000000     0.870550000000    -0.382176   
O436     O      0.720110000000     0.540900000000     0.871430000000    -0.383957   
O437     O      0.770360000000     0.540780000000     0.870590000000    -0.382822   
O438     O      0.770310000000     0.949550000000     0.871400000000    -0.38339    
O439     O      0.770370000000     0.994430000000     0.825290000000    -0.382995   
O440     O      0.770330000000     0.995520000000     0.916710000000    -0.383656   
O441     O      0.770340000000     0.745550000000     0.916710000000    -0.38328    
O442     O      0.770370000000     0.744390000000     0.825290000000    -0.382269   
O443     O      0.770370000000     0.790780000000     0.870560000000    -0.382791   
O444     O      0.770300000000     0.699550000000     0.871430000000    -0.383874   
O445     O      0.720050000000     0.699670000000     0.870590000000    -0.382918   
O446     O      0.720110000000     0.790900000000     0.871390000000    -0.383831   
O447     O      0.720050000000     0.746020000000     0.825290000000    -0.382259   
O448     O      0.720080000000     0.744940000000     0.916710000000    -0.383285   
O449     O      0.494950000000     0.970240000000     0.416720000000    -0.382472   
O450     O      0.496070000000     0.970180000000     0.325290000000    -0.381248   
O451     O      0.540930000000     0.970260000000     0.371420000000    -0.383008   
O452     O      0.949700000000     0.970190000000     0.370580000000    -0.381375   
O453     O      0.949580000000     0.520450000000     0.371400000000    -0.383279   
O454     O      0.540810000000     0.520510000000     0.370570000000    -0.382929   
O455     O      0.494440000000     0.520500000000     0.325280000000    -0.382146   
O456     O      0.495550000000     0.520490000000     0.416710000000    -0.383308   
O457     O      0.496240000000     0.719980000000     0.325280000000    -0.382258   
O458     O      0.495070000000     0.719970000000     0.416710000000    -0.383182   
O459     O      0.949840000000     0.719550000000     0.370550000000    -0.381968   
O460     O      0.541070000000     0.720420000000     0.371440000000    -0.384      
O461     O      0.540630000000     0.770670000000     0.370570000000    -0.382626   
O462     O      0.949410000000     0.769810000000     0.371450000000    -0.383496   
O463     O      0.495400000000     0.770230000000     0.416720000000    -0.383252   
O464     O      0.494240000000     0.770280000000     0.325300000000    -0.38229    
O465     O      0.746070000000     0.970180000000     0.325290000000    -0.381327   
O466     O      0.744950000000     0.970240000000     0.416710000000    -0.3824     
O467     O      0.699700000000     0.970190000000     0.370580000000    -0.38177    
O468     O      0.790930000000     0.970250000000     0.371420000000    -0.382961   
O469     O      0.790810000000     0.520510000000     0.370560000000    -0.38266    
O470     O      0.699580000000     0.520450000000     0.371410000000    -0.38389    
O471     O      0.745560000000     0.520490000000     0.416710000000    -0.38325    
O472     O      0.744440000000     0.520500000000     0.325280000000    -0.382131   
O473     O      0.744240000000     0.719970000000     0.325280000000    -0.382208   
O474     O      0.745390000000     0.719970000000     0.416710000000    -0.383096   
O475     O      0.699410000000     0.720420000000     0.371430000000    -0.384182   
O476     O      0.790630000000     0.719550000000     0.370550000000    -0.38235    
O477     O      0.791070000000     0.769810000000     0.371440000000    -0.383997   
O478     O      0.699840000000     0.770670000000     0.370570000000    -0.38259    
O479     O      0.745080000000     0.770230000000     0.416720000000    -0.383236   
O480     O      0.746230000000     0.770280000000     0.325300000000    -0.38224    
O481     O      0.494250000000     0.970180000000     0.667240000000    -0.381236   
O482     O      0.495390000000     0.970230000000     0.575820000000    -0.382443   
O483     O      0.540640000000     0.969790000000     0.621980000000    -0.381689   
O484     O      0.949410000000     0.970650000000     0.621100000000    -0.3826     
O485     O      0.949840000000     0.520900000000     0.621990000000    -0.38199    
O486     O      0.541070000000     0.520040000000     0.621120000000    -0.384174   
O487     O      0.495090000000     0.520490000000     0.575830000000    -0.38324    
O488     O      0.496230000000     0.520480000000     0.667260000000    -0.382257   
O489     O      0.496040000000     0.719960000000     0.667270000000    -0.382293   
O490     O      0.494910000000     0.719970000000     0.575840000000    -0.383251   
O491     O      0.540890000000     0.720010000000     0.621140000000    -0.383898   
O492     O      0.949660000000     0.719950000000     0.621980000000    -0.38215    
O493     O      0.949550000000     0.770210000000     0.621130000000    -0.383339   
O494     O      0.540780000000     0.770260000000     0.621970000000    -0.382788   
O495     O      0.495530000000     0.770220000000     0.575830000000    -0.383306   
O496     O      0.494410000000     0.770280000000     0.667250000000    -0.382228   
O497     O      0.744230000000     0.520480000000     0.667260000000    -0.382256   
O498     O      0.745410000000     0.520490000000     0.575830000000    -0.383208   
O499     O      0.699410000000     0.520040000000     0.621100000000    -0.384032   
O500     O      0.790640000000     0.520900000000     0.622000000000    -0.382615   
O501     O      0.791070000000     0.970650000000     0.621090000000    -0.383178   
O502     O      0.699840000000     0.969790000000     0.621980000000    -0.38163    
O503     O      0.745080000000     0.970230000000     0.575820000000    -0.382415   
O504     O      0.746230000000     0.970180000000     0.667240000000    -0.381238   
O505     O      0.744400000000     0.770280000000     0.667250000000    -0.382231   
O506     O      0.745530000000     0.770220000000     0.575830000000    -0.383307   
O507     O      0.699540000000     0.770200000000     0.621120000000    -0.383858   
O508     O      0.790770000000     0.770270000000     0.621970000000    -0.38273    
O509     O      0.790900000000     0.720010000000     0.621140000000    -0.383792   
O510     O      0.699670000000     0.719950000000     0.621970000000    -0.382854   
O511     O      0.744920000000     0.719970000000     0.575840000000    -0.383322   
O512     O      0.746030000000     0.719960000000     0.667270000000    -0.382212   


