data_structure

_audit_creation_method RASPA-1.0
_audit_creation_date 2023-5-22
_audit_author_name 'Poobodin Mano'

_cell_length_a    30.3752
_cell_length_b    30.5656
_cell_length_c    27.6073
_cell_angle_alpha 89.9997
_cell_angle_beta  90.0001
_cell_angle_gamma 89.9977
_cell_volume      25631.6

_symmetry_cell_setting          triclinic
_symmetry_space_group_name_Hall 'P 1'
_symmetry_space_group_name_H-M  'P 1'
_symmetry_Int_Tables_number     1

_symmetry_equiv_pos_as_xyz 'x,y,z'

loop_
_atom_site_label
_atom_site_type_symbol
_atom_site_fract_x
_atom_site_fract_y
_atom_site_fract_z
_atom_site_charge
C1       C      0.975340000000     0.403700000000     0.017420000000     0.42533    
C2       C      0.975400000000     0.569980000000     0.018270000000     0.429944   
C3       C      0.891860000000     0.486990000000     0.012650000000     0.427944   
C4       C      0.059100000000     0.486720000000     0.012710000000     0.428733   
C5       C      0.974820000000     0.415050000000     0.512230000000     0.431977   
C6       C      0.975360000000     0.581000000000     0.513140000000     0.427257   
C7       C      0.891730000000     0.497990000000     0.517830000000     0.427733   
C8       C      0.058930000000     0.497660000000     0.517620000000     0.42855    
C9       C      0.474990000000     0.407880000000     0.010150000000     0.428714   
C10      C      0.475560000000     0.573900000000     0.010230000000     0.430195   
C11      C      0.391830000000     0.490790000000     0.015070000000     0.427953   
C12      C      0.559110000000     0.490250000000     0.014520000000     0.428036   
C13      C      0.475820000000     0.409640000000     0.508140000000     0.426978   
C14      C      0.474730000000     0.576050000000     0.511770000000     0.426534   
C15      C      0.391660000000     0.492690000000     0.515740000000     0.427847   
C16      C      0.558960000000     0.493430000000     0.515500000000     0.427526   
C17      C      0.974830000000     0.900150000000     0.015690000000     0.355327   
C18      C      0.974710000000     0.074060000000     0.014920000000     0.355004   
C19      C      0.935270000000     0.985730000000     0.929910000000     0.361282   
C20      C      0.014230000000     0.986300000000     0.100420000000     0.361399   
C21      C      0.974590000000     0.911520000000     0.515050000000     0.355969   
C22      C      0.974210000000     0.085150000000     0.514650000000     0.35642    
C23      C      0.025280000000     0.998830000000     0.437540000000     0.361764   
C24      C      0.923490000000     0.998790000000     0.592460000000     0.361494   
C25      C      0.476330000000     0.904040000000     0.011130000000     0.35668    
C26      C      0.475770000000     0.077660000000     0.008410000000     0.355594   
C27      C      0.526420000000     0.989480000000     0.931900000000     0.361731   
C28      C      0.425660000000     0.992040000000     0.087660000000     0.361645   
C29      C      0.479530000000     0.906660000000     0.516830000000     0.354727   
C30      C      0.477510000000     0.080170000000     0.502450000000     0.35514    
C31      C      0.438470000000     0.985910000000     0.425200000000     0.361181   
C32      C      0.518600000000     0.000930000000     0.594300000000     0.361158   
C33      C      0.563850000000     0.957090000000     0.808950000000    -0.0663984  
C34      C      0.575380000000     0.998180000000     0.790030000000     0.0237177  
C35      C      0.580570000000     0.033840000000     0.821650000000    -0.0672665  
C36      C      0.569390000000     0.029620000000     0.870480000000     0.0278492  
C37      C      0.552730000000     0.989850000000     0.887760000000    -0.109839   
C38      C      0.552020000000     0.953100000000     0.857520000000     0.0288151  
C39      C      0.569830000000     0.005690000000     0.737670000000     0.024244   
C40      C      0.589040000000     0.977520000000     0.703460000000    -0.0678726  
C41      C      0.574490000000     0.977940000000     0.655380000000     0.0266843  
C42      C      0.539770000000     0.005610000000     0.641660000000    -0.109547   
C43      C      0.522480000000     0.035430000000     0.675120000000     0.0278191  
C44      C      0.537750000000     0.035850000000     0.722600000000    -0.0669984  
C45      C      0.387880000000     0.025460000000     0.210020000000    -0.0662956  
C46      C      0.378680000000     0.984280000000     0.230180000000     0.0238277  
C47      C      0.374620000000     0.947780000000     0.199550000000    -0.0674099  
C48      C      0.384900000000     0.951470000000     0.150430000000     0.0276936  
C49      C      0.399450000000     0.991580000000     0.131860000000    -0.109852   
C50      C      0.398760000000     0.028970000000     0.161130000000     0.0286746  
C51      C      0.385760000000     0.978020000000     0.282520000000     0.024066   
C52      C      0.419500000000     0.949590000000     0.297320000000    -0.0669438  
C53      C      0.435460000000     0.951190000000     0.344480000000     0.0281478  
C54      C      0.417290000000     0.980490000000     0.377940000000    -0.109677   
C55      C      0.381210000000     0.006510000000     0.364510000000     0.0270989  
C56      C      0.365920000000     0.005780000000     0.316710000000    -0.0677117  
C57      C      0.863670000000     0.010100000000     0.821640000000    -0.0676929  
C58      C      0.882900000000     0.982610000000     0.786760000000     0.0240765  
C59      C      0.916090000000     0.953260000000     0.800800000000    -0.0670168  
C60      C      0.932050000000     0.953540000000     0.847990000000     0.0281122  
C61      C      0.914410000000     0.982420000000     0.882230000000    -0.109624   
C62      C      0.878940000000     0.009500000000     0.869480000000     0.0270808  
C63      C      0.875820000000     0.989900000000     0.734580000000     0.0237553  
C64      C      0.870930000000     0.953990000000     0.703240000000    -0.0673679  
C65      C      0.881410000000     0.958190000000     0.654210000000     0.0273742  
C66      C      0.897020000000     0.998220000000     0.636490000000    -0.109675   
C67      C      0.897090000000     0.035170000000     0.666470000000     0.0286737  
C68      C      0.885970000000     0.031170000000     0.715250000000    -0.0662342  
C69      C      0.062990000000     0.031650000000     0.314980000000    -0.0663332  
C70      C      0.073650000000     0.990500000000     0.295650000000     0.0237661  
C71      C      0.078740000000     0.954610000000     0.326980000000    -0.0673867  
C72      C      0.067950000000     0.958650000000     0.375930000000     0.027569   
C73      C      0.051830000000     0.998500000000     0.393580000000    -0.109924   
C74      C      0.051570000000     0.035480000000     0.363670000000     0.0287984  
C75      C      0.066730000000     0.983210000000     0.243460000000     0.0241502  
C76      C      0.033750000000     0.953640000000     0.229360000000    -0.0670379  
C77      C      0.017750000000     0.953940000000     0.182200000000     0.0283561  
C78      C      0.035120000000     0.983060000000     0.148060000000    -0.109844   
C79      C      0.070410000000     0.010360000000     0.160850000000     0.0272291  
C80      C      0.085720000000     0.010940000000     0.208660000000    -0.0677568  
C81      C      0.496120000000     0.291290000000     0.542320000000    -0.0735834  
C82      C      0.477320000000     0.269100000000     0.502900000000     0.0279124  
C83      C      0.457940000000     0.293270000000     0.465320000000    -0.0738187  
C84      C      0.457860000000     0.339000000000     0.466800000000     0.0375867  
C85      C      0.476210000000     0.361310000000     0.506500000000    -0.132388   
C86      C      0.495110000000     0.337010000000     0.544410000000     0.0368533  
C87      C      0.477520000000     0.220760000000     0.501250000000     0.0203744  
C88      C      0.517370000000     0.197580000000     0.503400000000    -0.0653857  
C89      C      0.517460000000     0.151820000000     0.502380000000     0.0230014  
C90      C      0.477620000000     0.128490000000     0.500430000000    -0.1049     
C91      C      0.437770000000     0.151800000000     0.498320000000     0.0231139  
C92      C      0.437760000000     0.197550000000     0.498130000000    -0.06564    
C93      C      0.481820000000     0.694650000000     0.472030000000    -0.0729769  
C94      C      0.475950000000     0.717030000000     0.516040000000     0.0276956  
C95      C      0.469150000000     0.692700000000     0.558570000000    -0.0731383  
C96      C      0.468750000000     0.646960000000     0.557200000000     0.036149   
C97      C      0.474730000000     0.624540000000     0.513170000000    -0.131238   
C98      C      0.481060000000     0.648940000000     0.470560000000     0.0362655  
C99      C      0.477340000000     0.765600000000     0.517510000000     0.0202318  
C100     C      0.510040000000     0.788480000000     0.491960000000    -0.0650784  
C101     C      0.511120000000     0.834170000000     0.492510000000     0.0219247  
C102     C      0.479300000000     0.858140000000     0.518330000000    -0.103871   
C103     C      0.446770000000     0.835240000000     0.544250000000     0.0220362  
C104     C      0.445930000000     0.789450000000     0.544020000000    -0.0646955  
C105     C      0.470250000000     0.290660000000     0.965700000000    -0.0733571  
C106     C      0.474350000000     0.267060000000     0.009130000000     0.0277413  
C107     C      0.478410000000     0.290120000000     0.052950000000    -0.0737335  
C108     C      0.478420000000     0.335820000000     0.053330000000     0.0371197  
C109     C      0.474610000000     0.359460000000     0.009850000000    -0.133213   
C110     C      0.470490000000     0.336360000000     0.966020000000     0.0374942  
C111     C      0.474700000000     0.218530000000     0.008730000000     0.0200362  
C112     C      0.444600000000     0.195080000000     0.980090000000    -0.0650726  
C113     C      0.444890000000     0.149350000000     0.979940000000     0.0226692  
C114     C      0.475470000000     0.126110000000     0.008230000000    -0.105675   
C115     C      0.505720000000     0.149650000000     0.036660000000     0.0224693  
C116     C      0.505250000000     0.195330000000     0.037000000000    -0.0653892  
C117     C      0.484970000000     0.787040000000     0.054000000000    -0.0649593  
C118     C      0.476690000000     0.763450000000     0.011040000000     0.0207292  
C119     C      0.468630000000     0.787160000000     0.968140000000    -0.0648189  
C120     C      0.467960000000     0.832840000000     0.968440000000     0.0252449  
C121     C      0.476750000000     0.855940000000     0.011190000000    -0.10722    
C122     C      0.485690000000     0.832770000000     0.053860000000     0.0245934  
C123     C      0.476370000000     0.714540000000     0.010920000000     0.0280578  
C124     C      0.502840000000     0.690630000000     0.043460000000    -0.0734096  
C125     C      0.502030000000     0.644930000000     0.043700000000     0.0390021  
C126     C      0.475870000000     0.622040000000     0.010420000000    -0.135378   
C127     C      0.449920000000     0.645480000000     0.977440000000     0.039548   
C128     C      0.449590000000     0.691170000000     0.978180000000    -0.0729416  
C129     C      0.440960000000     0.470860000000     0.815940000000    -0.101825   
C130     C      0.475530000000     0.490640000000     0.789780000000     0.0412664  
C131     C      0.509970000000     0.510520000000     0.816070000000    -0.101515   
C132     C      0.509590000000     0.510810000000     0.866800000000     0.106084   
C133     C      0.475220000000     0.490950000000     0.892310000000    -0.303393   
C134     C      0.441030000000     0.470890000000     0.866680000000     0.105964   
C135     C      0.475610000000     0.490710000000     0.735540000000     0.0402145  
C136     C      0.458880000000     0.454840000000     0.709160000000    -0.100574   
C137     C      0.458740000000     0.455220000000     0.658400000000     0.103725   
C138     C      0.475620000000     0.491070000000     0.632990000000    -0.300526   
C139     C      0.492540000000     0.526680000000     0.658760000000     0.103691   
C140     C      0.492370000000     0.526720000000     0.709480000000    -0.100731   
C141     C      0.510800000000     0.511530000000     0.316040000000    -0.100703   
C142     C      0.475430000000     0.493220000000     0.289850000000     0.0406805  
C143     C      0.439810000000     0.475530000000     0.316150000000    -0.100635   
C144     C      0.439860000000     0.475860000000     0.366890000000     0.104129   
C145     C      0.475070000000     0.494210000000     0.392430000000    -0.299219   
C146     C      0.510410000000     0.512170000000     0.366790000000     0.103933   
C147     C      0.475670000000     0.492530000000     0.235570000000     0.040377   
C148     C      0.494620000000     0.527100000000     0.208930000000    -0.100483   
C149     C      0.494910000000     0.526320000000     0.158200000000     0.103694   
C150     C      0.475950000000     0.491390000000     0.132980000000    -0.299779   
C151     C      0.456940000000     0.456970000000     0.158970000000     0.103467   
C152     C      0.456950000000     0.457310000000     0.209730000000    -0.100552   
C153     C      0.971400000000     0.297470000000     0.468900000000    -0.0740528  
C154     C      0.974570000000     0.274350000000     0.512740000000     0.0284936  
C155     C      0.977730000000     0.297800000000     0.556350000000    -0.0744939  
C156     C      0.977640000000     0.343460000000     0.556160000000     0.0383126  
C157     C      0.974650000000     0.366670000000     0.512310000000    -0.134624   
C158     C      0.971590000000     0.343180000000     0.468660000000     0.0379827  
C159     C      0.974570000000     0.225880000000     0.513070000000     0.0203113  
C160     C      0.944470000000     0.202410000000     0.484500000000    -0.0654164  
C161     C      0.944230000000     0.156730000000     0.485160000000     0.0229315  
C162     C      0.974290000000     0.133550000000     0.514160000000    -0.105861   
C163     C      0.004530000000     0.157080000000     0.542580000000     0.0228252  
C164     C      0.004570000000     0.202760000000     0.542140000000    -0.0654289  
C165     C      0.948700000000     0.698250000000     0.481120000000    -0.0728158  
C166     C      0.975250000000     0.721800000000     0.513930000000     0.0278374  
C167     C      0.001870000000     0.698000000000     0.546450000000    -0.0727709  
C168     C      0.001390000000     0.652280000000     0.546630000000     0.0377507  
C169     C      0.975400000000     0.629200000000     0.513340000000    -0.133309   
C170     C      0.949330000000     0.652540000000     0.480350000000     0.0382966  
C171     C      0.975150000000     0.770760000000     0.514240000000     0.0207884  
C172     C      0.966840000000     0.794620000000     0.471480000000    -0.0648828  
C173     C      0.965990000000     0.840330000000     0.471980000000     0.0240624  
C174     C      0.974820000000     0.863340000000     0.514810000000    -0.106236   
C175     C      0.983860000000     0.839990000000     0.557350000000     0.0239999  
C176     C      0.983340000000     0.794260000000     0.557290000000    -0.0648711  
C177     C      0.773130000000     0.509680000000     0.558620000000    -0.0719336  
C178     C      0.749870000000     0.496520000000     0.516980000000     0.0256681  
C179     C      0.773910000000     0.483880000000     0.475730000000    -0.0723002  
C180     C      0.819880000000     0.484650000000     0.475990000000     0.0362947  
C181     C      0.843020000000     0.497530000000     0.517700000000    -0.132173   
C182     C      0.819160000000     0.509910000000     0.559070000000     0.0363921  
C183     C      0.700800000000     0.495800000000     0.516570000000     0.025797   
C184     C      0.677080000000     0.483680000000     0.558240000000    -0.0720993  
C185     C      0.631090000000     0.483100000000     0.557900000000     0.0365655  
C186     C      0.607670000000     0.494080000000     0.515720000000    -0.132078   
C187     C      0.631230000000     0.505910000000     0.473950000000     0.0365287  
C188     C      0.677230000000     0.507040000000     0.474460000000    -0.072274   
C189     C      0.177140000000     0.509720000000     0.475840000000    -0.0722322  
C190     C      0.200760000000     0.495390000000     0.516740000000     0.0257669  
C191     C      0.177070000000     0.481900000000     0.557940000000    -0.0722971  
C192     C      0.131090000000     0.483020000000     0.558340000000     0.0368435  
C193     C      0.107620000000     0.497050000000     0.517340000000    -0.132809   
C194     C      0.131130000000     0.510240000000     0.476020000000     0.0363438  
C195     C      0.249830000000     0.494560000000     0.516480000000     0.0257913  
C196     C      0.273150000000     0.483740000000     0.474080000000    -0.0722873  
C197     C      0.319160000000     0.483330000000     0.473770000000     0.0367499  
C198     C      0.342970000000     0.493120000000     0.516030000000    -0.132326   
C199     C      0.319810000000     0.503560000000     0.558530000000     0.0367121  
C200     C      0.273830000000     0.504580000000     0.558670000000    -0.0720539  
C201     C      0.014740000000     0.191440000000     0.017390000000    -0.0655947  
C202     C      0.974930000000     0.214710000000     0.015860000000     0.020498   
C203     C      0.935050000000     0.191590000000     0.013880000000    -0.0656408  
C204     C      0.934950000000     0.145820000000     0.014110000000     0.0231577  
C205     C      0.974790000000     0.122430000000     0.015070000000    -0.104783   
C206     C      0.014700000000     0.145680000000     0.016380000000     0.0231484  
C207     C      0.974990000000     0.263060000000     0.016320000000     0.0274407  
C208     C      0.993930000000     0.285950000000     0.055160000000    -0.0733833  
C209     C      0.993530000000     0.331710000000     0.055860000000     0.0369586  
C210     C      0.975160000000     0.355330000000     0.017120000000    -0.131836   
C211     C      0.956680000000     0.332310000000     0.978000000000     0.0372927  
C212     C      0.956120000000     0.286560000000     0.977900000000    -0.0733951  
C213     C      0.969790000000     0.687650000000     0.061330000000    -0.0736044  
C214     C      0.975470000000     0.710800000000     0.017800000000     0.0279973  
C215     C      0.981120000000     0.687340000000     0.974510000000    -0.0737742  
C216     C      0.980930000000     0.641640000000     0.974670000000     0.0380089  
C217     C      0.975440000000     0.618400000000     0.018220000000    -0.133828   
C218     C      0.969980000000     0.641920000000     0.061580000000     0.0374054  
C219     C      0.975420000000     0.759310000000     0.017470000000     0.0200801  
C220     C      0.943350000000     0.782750000000     0.043370000000    -0.0651576  
C221     C      0.943020000000     0.828470000000     0.042600000000     0.0226709  
C222     C      0.975010000000     0.851710000000     0.016270000000    -0.105222   
C223     C      0.007240000000     0.828210000000     0.990600000000     0.023002   
C224     C      0.007320000000     0.782500000000     0.991030000000    -0.0649154  
C225     C      0.677210000000     0.501850000000     0.972200000000    -0.0720094  
C226     C      0.700950000000     0.488720000000     0.013510000000     0.0254831  
C227     C      0.677380000000     0.476100000000     0.055120000000    -0.07213    
C228     C      0.631390000000     0.476900000000     0.055540000000     0.0364888  
C229     C      0.607810000000     0.489770000000     0.014150000000    -0.132818   
C230     C      0.631200000000     0.502090000000     0.972420000000     0.0370158  
C231     C      0.750010000000     0.488230000000     0.013250000000     0.025521   
C232     C      0.773400000000     0.476350000000     0.971240000000    -0.0718564  
C233     C      0.819410000000     0.476180000000     0.970950000000     0.0370748  
C234     C      0.843160000000     0.487310000000     0.012850000000    -0.132685   
C235     C      0.819930000000     0.498880000000     0.054940000000     0.0365363  
C236     C      0.773940000000     0.499630000000     0.055050000000    -0.0722719  
C237     C      0.177120000000     0.476020000000     0.055440000000    -0.0724708  
C238     C      0.200930000000     0.488330000000     0.013900000000     0.0256152  
C239     C      0.177440000000     0.499940000000     0.971850000000    -0.0719546  
C240     C      0.131440000000     0.498990000000     0.971280000000     0.0372101  
C241     C      0.107790000000     0.487000000000     0.012940000000    -0.133202   
C242     C      0.131130000000     0.475650000000     0.055060000000     0.0367522  
C243     C      0.249990000000     0.488940000000     0.014370000000     0.0254481  
C244     C      0.273250000000     0.501770000000     0.056150000000    -0.0719552  
C245     C      0.319280000000     0.502060000000     0.056580000000     0.0363036  
C246     C      0.343130000000     0.490130000000     0.015040000000    -0.132748   
C247     C      0.320000000000     0.477520000000     0.973230000000     0.0372156  
C248     C      0.274040000000     0.476650000000     0.973000000000    -0.072186   
C249     C      0.991830000000     0.526970000000     0.819560000000    -0.100932   
C250     C      0.975360000000     0.491720000000     0.792240000000     0.0404767  
C251     C      0.959130000000     0.454770000000     0.816950000000    -0.100834   
C252     C      0.959030000000     0.453380000000     0.867730000000     0.103049   
C253     C      0.975650000000     0.488510000000     0.894630000000    -0.298011   
C254     C      0.992240000000     0.525150000000     0.870260000000     0.102699   
C255     C      0.975400000000     0.493410000000     0.738270000000     0.04021    
C256     C      0.960760000000     0.531000000000     0.713510000000    -0.100549   
C257     C      0.960690000000     0.532320000000     0.662730000000     0.102393   
C258     C      0.975750000000     0.496490000000     0.635870000000    -0.297851   
C259     C      0.990790000000     0.459210000000     0.660290000000     0.102285   
C260     C      0.990330000000     0.457470000000     0.710990000000    -0.100837   
C261     C      0.938600000000     0.475440000000     0.212850000000    -0.100522   
C262     C      0.975420000000     0.491460000000     0.238290000000     0.0400011  
C263     C      0.012380000000     0.505400000000     0.211670000000    -0.100429   
C264     C      0.012300000000     0.503710000000     0.160970000000     0.101859   
C265     C      0.975670000000     0.487590000000     0.135910000000    -0.297943   
C266     C      0.938910000000     0.473330000000     0.162110000000     0.10208    
C267     C      0.975360000000     0.493630000000     0.292280000000     0.0404188  
C268     C      0.938460000000     0.509580000000     0.317630000000    -0.100939   
C269     C      0.938660000000     0.511650000000     0.368370000000     0.103098   
C270     C      0.975390000000     0.497450000000     0.394650000000    -0.298984   
C271     C      0.012110000000     0.481410000000     0.369680000000     0.102502   
C272     C      0.012300000000     0.479740000000     0.318970000000    -0.100629   
Cu1      Cu     0.975610000000     0.486730000000     0.065390000000     1.19024    
Cu2      Cu     0.975360000000     0.487070000000     0.965140000000     1.19053    
Cu3      Cu     0.975630000000     0.497860000000     0.565340000000     1.19059    
Cu4      Cu     0.975030000000     0.498180000000     0.465140000000     1.19319    
Cu5      Cu     0.475890000000     0.490890000000     0.062600000000     1.18858    
Cu6      Cu     0.475050000000     0.491080000000     0.962580000000     1.19777    
Cu7      Cu     0.475470000000     0.491720000000     0.562680000000     1.19034    
Cu8      Cu     0.475130000000     0.493800000000     0.462790000000     1.1865     
Cu9      Cu     0.938130000000     0.987120000000     0.035110000000     0.84407    
Cu10     Cu     0.011350000000     0.987030000000     0.995250000000     0.845131   
Cu11     Cu     0.941030000000     0.998220000000     0.488970000000     0.84604    
Cu12     Cu     0.007710000000     0.998440000000     0.540980000000     0.845718   
Cu13     Cu     0.442520000000     0.990200000000     0.984030000000     0.846236   
Cu14     Cu     0.509550000000     0.991340000000     0.035530000000     0.845936   
Cu15     Cu     0.442070000000     0.994630000000     0.529940000000     0.843007   
Cu16     Cu     0.514990000000     0.992300000000     0.489540000000     0.844526   
H1       H      0.589240000000     0.065830000000     0.807690000000     0.0476285  
H2       H      0.569570000000     0.058400000000     0.893420000000     0.0282647  
H3       H      0.538730000000     0.922310000000     0.870390000000     0.0272126  
H4       H      0.559090000000     0.929260000000     0.785200000000     0.0485321  
H5       H      0.613500000000     0.953740000000     0.714510000000     0.0478828  
H6       H      0.588170000000     0.954670000000     0.629900000000     0.031859   
H7       H      0.495900000000     0.057260000000     0.665000000000     0.0318822  
H8       H      0.521890000000     0.057410000000     0.748420000000     0.0492237  
H9       H      0.367710000000     0.915720000000     0.214460000000     0.0477689  
H10      H      0.385850000000     0.922210000000     0.128270000000     0.0278511  
H11      H      0.410460000000     0.060050000000     0.147260000000     0.0278465  
H12      H      0.391710000000     0.053960000000     0.232980000000     0.0485174  
H13      H      0.435880000000     0.928430000000     0.271480000000     0.0490111  
H14      H      0.463080000000     0.930580000000     0.354380000000     0.0315495  
H15      H      0.366820000000     0.029340000000     0.390020000000     0.0312024  
H16      H      0.340190000000     0.028270000000     0.305850000000     0.0476068  
H17      H      0.932030000000     0.932300000000     0.774440000000     0.0490002  
H18      H      0.959150000000     0.932080000000     0.857360000000     0.0317105  
H19      H      0.864920000000     0.031970000000     0.895610000000     0.0310956  
H20      H      0.838380000000     0.033300000000     0.811370000000     0.0477014  
H21      H      0.863270000000     0.921860000000     0.717530000000     0.0475435  
H22      H      0.881750000000     0.929270000000     0.631510000000     0.0279101  
H23      H      0.909550000000     0.066180000000     0.653240000000     0.0281392  
H24      H      0.890430000000     0.059200000000     0.738760000000     0.0485828  
H25      H      0.086780000000     0.922570000000     0.312690000000     0.0477943  
H26      H      0.067790000000     0.929710000000     0.398600000000     0.028064   
H27      H      0.038750000000     0.066360000000     0.376870000000     0.02809    
H28      H      0.058380000000     0.059670000000     0.291470000000     0.0485579  
H29      H      0.017990000000     0.932490000000     0.255670000000     0.0491157  
H30      H      0.990810000000     0.932300000000     0.172780000000     0.0316157  
H31      H      0.084220000000     0.033010000000     0.134760000000     0.0308933  
H32      H      0.110820000000     0.034320000000     0.219000000000     0.0475866  
H33      H      0.443300000000     0.276750000000     0.434550000000     0.0491731  
H34      H      0.442920000000     0.356880000000     0.437170000000     0.0305921  
H35      H      0.509630000000     0.353350000000     0.575340000000     0.0304926  
H36      H      0.511060000000     0.273210000000     0.571810000000     0.0493384  
H37      H      0.548410000000     0.214920000000     0.505660000000     0.0477925  
H38      H      0.548640000000     0.134710000000     0.504360000000     0.0347392  
H39      H      0.406590000000     0.134660000000     0.496670000000     0.0338225  
H40      H      0.406650000000     0.214830000000     0.496560000000     0.0472016  
H41      H      0.464890000000     0.709030000000     0.593080000000     0.0482767  
H42      H      0.463760000000     0.629200000000     0.590710000000     0.0313531  
H43      H      0.485740000000     0.632760000000     0.436040000000     0.0329258  
H44      H      0.486640000000     0.712520000000     0.438560000000     0.0484206  
H45      H      0.535030000000     0.771020000000     0.471710000000     0.0462426  
H46      H      0.536660000000     0.850650000000     0.472110000000     0.0356949  
H47      H      0.421760000000     0.852650000000     0.564510000000     0.0359469  
H48      H      0.420160000000     0.772700000000     0.563800000000     0.0467414  
H49      H      0.481130000000     0.272810000000     0.087050000000     0.0483996  
H50      H      0.481550000000     0.352570000000     0.087740000000     0.0314183  
H51      H      0.467470000000     0.353540000000     0.931860000000     0.0328021  
H52      H      0.467510000000     0.273780000000     0.931330000000     0.0483861  
H53      H      0.420410000000     0.212090000000     0.958270000000     0.046359   
H54      H      0.421120000000     0.132270000000     0.957640000000     0.0356627  
H55      H      0.529760000000     0.132840000000     0.058870000000     0.0359156  
H56      H      0.529200000000     0.212510000000     0.058990000000     0.0466271  
H57      H      0.463310000000     0.770650000000     0.933980000000     0.0458941  
H58      H      0.461460000000     0.850150000000     0.934930000000     0.0316756  
H59      H      0.492140000000     0.850030000000     0.087400000000     0.0314584  
H60      H      0.490290000000     0.770400000000     0.088090000000     0.0456098  
H61      H      0.524760000000     0.707000000000     0.068480000000     0.0477542  
H62      H      0.522660000000     0.627450000000     0.069220000000     0.0277324  
H63      H      0.429070000000     0.628430000000     0.951780000000     0.0302162  
H64      H      0.427800000000     0.707950000000     0.953370000000     0.0482881  
H65      H      0.537560000000     0.525450000000     0.797560000000     0.0544035  
H66      H      0.536160000000     0.526410000000     0.886330000000     0.00575949 
H67      H      0.414350000000     0.455390000000     0.886130000000     0.00568408 
H68      H      0.413490000000     0.455840000000     0.797310000000     0.054104   
H69      H      0.446340000000     0.426190000000     0.727610000000     0.0541243  
H70      H      0.445570000000     0.427530000000     0.638780000000     0.0072194  
H71      H      0.505740000000     0.554530000000     0.639470000000     0.00732336 
H72      H      0.504870000000     0.555270000000     0.728140000000     0.0542058  
H73      H      0.411600000000     0.461790000000     0.297640000000     0.053784   
H74      H      0.412450000000     0.461760000000     0.386410000000     0.00585789 
H75      H      0.537810000000     0.526400000000     0.386220000000     0.00555853 
H76      H      0.539170000000     0.524840000000     0.297450000000     0.0536719  
H77      H      0.508740000000     0.555150000000     0.227140000000     0.0539182  
H78      H      0.509790000000     0.553060000000     0.138460000000     0.00742562 
H79      H      0.442210000000     0.429810000000     0.139800000000     0.00639948 
H80      H      0.442720000000     0.429690000000     0.228620000000     0.0539518  
H81      H      0.979720000000     0.280820000000     0.590720000000     0.0484251  
H82      H      0.980000000000     0.360510000000     0.590450000000     0.0303671  
H83      H      0.969270000000     0.360050000000     0.434240000000     0.0331289  
H84      H      0.969350000000     0.280220000000     0.434700000000     0.0488223  
H85      H      0.920680000000     0.219390000000     0.462110000000     0.0468191  
H86      H      0.920510000000     0.139630000000     0.462800000000     0.0358647  
H87      H      0.028160000000     0.140270000000     0.565310000000     0.0356919  
H88      H      0.028440000000     0.220020000000     0.564160000000     0.0464434  
H89      H      0.023660000000     0.714480000000     0.571500000000     0.0478565  
H90      H      0.022120000000     0.634940000000     0.572160000000     0.0294908  
H91      H      0.928600000000     0.635390000000     0.454640000000     0.0295235  
H92      H      0.926830000000     0.714920000000     0.456290000000     0.0478273  
H93      H      0.961510000000     0.778210000000     0.437260000000     0.0457446  
H94      H      0.959410000000     0.857740000000     0.438560000000     0.0320448  
H95      H      0.990330000000     0.857120000000     0.590970000000     0.0319013  
H96      H      0.988790000000     0.777530000000     0.591300000000     0.0454543  
H97      H      0.757290000000     0.472740000000     0.443300000000     0.0474616  
H98      H      0.837290000000     0.474600000000     0.443600000000     0.0313006  
H99      H      0.836020000000     0.520310000000     0.591680000000     0.0323803  
H100     H      0.755830000000     0.520390000000     0.590800000000     0.0477898  
H101     H      0.693980000000     0.474010000000     0.591060000000     0.0479748  
H102     H      0.613900000000     0.473530000000     0.590620000000     0.0330033  
H103     H      0.614140000000     0.514890000000     0.440970000000     0.0300677  
H104     H      0.694240000000     0.517310000000     0.441930000000     0.0471254  
H105     H      0.193970000000     0.469860000000     0.589790000000     0.0476774  
H106     H      0.113930000000     0.472260000000     0.590620000000     0.0322796  
H107     H      0.113990000000     0.521500000000     0.443940000000     0.0310142  
H108     H      0.194130000000     0.521120000000     0.443760000000     0.0476731  
H109     H      0.255930000000     0.475020000000     0.441130000000     0.0472246  
H110     H      0.336060000000     0.474830000000     0.440520000000     0.0299504  
H111     H      0.337220000000     0.511620000000     0.591600000000     0.0327754  
H112     H      0.257160000000     0.513870000000     0.591770000000     0.047841   
H113     H      0.903980000000     0.208960000000     0.012800000000     0.0474592  
H114     H      0.903720000000     0.128750000000     0.012880000000     0.0339069  
H115     H      0.045880000000     0.128500000000     0.017380000000     0.0338951  
H116     H      0.045860000000     0.208710000000     0.018790000000     0.0474791  
H117     H      0.008560000000     0.268380000000     0.085210000000     0.0494836  
H118     H      0.008160000000     0.348600000000     0.086370000000     0.0316011  
H119     H      0.942140000000     0.349670000000     0.947760000000     0.0292035  
H120     H      0.941440000000     0.269480000000     0.947540000000     0.0491202  
H121     H      0.985130000000     0.704330000000     0.940360000000     0.0483248  
H122     H      0.985220000000     0.624580000000     0.940610000000     0.030307   
H123     H      0.965670000000     0.625030000000     0.095750000000     0.0330455  
H124     H      0.965750000000     0.704920000000     0.095310000000     0.0487158  
H125     H      0.918120000000     0.765720000000     0.063710000000     0.0466195  
H126     H      0.917770000000     0.845550000000     0.062840000000     0.0354565  
H127     H      0.032360000000     0.845070000000     0.969940000000     0.0354355  
H128     H      0.032670000000     0.765270000000     0.971090000000     0.0465212  
H129     H      0.694390000000     0.464990000000     0.087320000000     0.0475507  
H130     H      0.614330000000     0.466880000000     0.088160000000     0.0328685  
H131     H      0.613980000000     0.512480000000     0.940040000000     0.0304164  
H132     H      0.694110000000     0.512560000000     0.939780000000     0.0477627  
H133     H      0.756220000000     0.466600000000     0.938630000000     0.0478291  
H134     H      0.836350000000     0.466790000000     0.938030000000     0.0321635  
H135     H      0.837270000000     0.507950000000     0.087730000000     0.0306716  
H136     H      0.757210000000     0.509750000000     0.087820000000     0.0472443  
H137     H      0.194510000000     0.510380000000     0.939430000000     0.0477454  
H138     H      0.114410000000     0.508300000000     0.938380000000     0.0319977  
H139     H      0.113860000000     0.465970000000     0.087690000000     0.0306664  
H140     H      0.193950000000     0.466080000000     0.088210000000     0.0473661  
H141     H      0.255960000000     0.512180000000     0.088440000000     0.0476904  
H142     H      0.336160000000     0.512220000000     0.089270000000     0.032669   
H143     H      0.337410000000     0.467750000000     0.940730000000     0.0306139  
H144     H      0.257420000000     0.465750000000     0.940470000000     0.0475667  
H145     H      0.945900000000     0.427220000000     0.797010000000     0.0546502  
H146     H      0.945890000000     0.425030000000     0.886170000000     0.00581922 
H147     H      0.005540000000     0.552310000000     0.890620000000     0.00656262 
H148     H      0.005030000000     0.555670000000     0.801700000000     0.0545041  
H149     H      0.948760000000     0.559110000000     0.733430000000     0.0548246  
H150     H      0.948820000000     0.561200000000     0.644230000000     0.00694339 
H151     H      0.002950000000     0.431490000000     0.640000000000     0.00706191 
H152     H      0.002310000000     0.428270000000     0.728880000000     0.0545972  
H153     H      0.041070000000     0.518350000000     0.230030000000     0.0545579  
H154     H      0.040700000000     0.515290000000     0.141140000000     0.00805536 
H155     H      0.910450000000     0.460740000000     0.143160000000     0.00706945 
H156     H      0.909780000000     0.464050000000     0.232200000000     0.054419   
H157     H      0.909660000000     0.520930000000     0.298210000000     0.0542993  
H158     H      0.910130000000     0.524160000000     0.387280000000     0.00657992 
H159     H      0.040470000000     0.469840000000     0.389590000000     0.00744942 
H160     H      0.041050000000     0.466840000000     0.300680000000     0.0544539  
O1       O      0.975870000000     0.424030000000     0.057650000000    -0.466554   
O2       O      0.976270000000     0.549370000000     0.058230000000    -0.469102   
O3       O      0.912610000000     0.487430000000     0.052750000000    -0.469513   
O4       O      0.038460000000     0.485990000000     0.052820000000    -0.470134   
O5       O      0.038450000000     0.487470000000     0.972650000000    -0.468682   
O6       O      0.912390000000     0.486450000000     0.972530000000    -0.467931   
O7       O      0.974540000000     0.549500000000     0.978150000000    -0.470218   
O8       O      0.974940000000     0.424330000000     0.977310000000    -0.46672    
O9       O      0.973810000000     0.435520000000     0.552340000000    -0.471587   
O10      O      0.978890000000     0.560460000000     0.553100000000    -0.467999   
O11      O      0.912490000000     0.500250000000     0.557790000000    -0.467767   
O12      O      0.038470000000     0.495320000000     0.557690000000    -0.468819   
O13      O      0.038080000000     0.500270000000     0.477690000000    -0.470026   
O14      O      0.912280000000     0.495870000000     0.477710000000    -0.469337   
O15      O      0.971770000000     0.560700000000     0.473110000000    -0.468175   
O16      O      0.976040000000     0.435620000000     0.472280000000    -0.470607   
O17      O      0.475180000000     0.428280000000     0.050380000000    -0.468375   
O18      O      0.478370000000     0.553400000000     0.050220000000    -0.47008    
O19      O      0.412670000000     0.492200000000     0.055020000000    -0.467907   
O20      O      0.538740000000     0.488820000000     0.054710000000    -0.46839    
O21      O      0.538180000000     0.492010000000     0.974590000000    -0.470061   
O22      O      0.412290000000     0.489670000000     0.974870000000    -0.46965    
O23      O      0.472550000000     0.553590000000     0.970210000000    -0.470142   
O24      O      0.475130000000     0.428550000000     0.970190000000    -0.470447   
O25      O      0.477060000000     0.429200000000     0.548870000000    -0.466593   
O26      O      0.474650000000     0.554600000000     0.551330000000    -0.467725   
O27      O      0.412480000000     0.491300000000     0.555660000000    -0.469752   
O28      O      0.538320000000     0.492590000000     0.555520000000    -0.469754   
O29      O      0.538290000000     0.493850000000     0.475330000000    -0.467102   
O30      O      0.412140000000     0.494040000000     0.475520000000    -0.467346   
O31      O      0.475080000000     0.556350000000     0.471200000000    -0.466715   
O32      O      0.474320000000     0.431080000000     0.468730000000    -0.468595   
O33      O      0.941590000000     0.920820000000     0.032970000000    -0.386449   
O34      O      0.941830000000     0.053510000000     0.033170000000    -0.385461   
O35      O      0.911300000000     0.987460000000     0.967980000000    -0.387496   
O36      O      0.972070000000     0.986050000000     0.098160000000    -0.389515   
O37      O      0.038190000000     0.987840000000     0.062340000000    -0.38808    
O38      O      0.977420000000     0.985520000000     0.932210000000    -0.389721   
O39      O      0.007580000000     0.053450000000     0.996730000000    -0.385071   
O40      O      0.007980000000     0.920730000000     0.998050000000    -0.386088   
O41      O      0.945490000000     0.931940000000     0.490110000000    -0.386239   
O42      O      0.943470000000     0.064440000000     0.492560000000    -0.387578   
O43      O      0.983370000000     0.999950000000     0.432640000000    -0.39006    
O44      O      0.905010000000     0.996740000000     0.550870000000    -0.385975   
O45      O      0.965400000000     0.000130000000     0.597320000000    -0.389935   
O46      O      0.043750000000     0.996950000000     0.479150000000    -0.386185   
O47      O      0.004970000000     0.064660000000     0.537010000000    -0.387321   
O48      O      0.003560000000     0.932090000000     0.540010000000    -0.385832   
O49      O      0.446530000000     0.924070000000     0.986880000000    -0.386795   
O50      O      0.445430000000     0.056640000000     0.985940000000    -0.386293   
O51      O      0.484460000000     0.989710000000     0.927300000000    -0.389895   
O52      O      0.406890000000     0.990300000000     0.046210000000    -0.386242   
O53      O      0.467620000000     0.992830000000     0.092210000000    -0.390041   
O54      O      0.545180000000     0.990200000000     0.973390000000    -0.386027   
O55      O      0.506300000000     0.057450000000     0.031400000000    -0.387789   
O56      O      0.505920000000     0.924930000000     0.034880000000    -0.385935   
O57      O      0.446860000000     0.928190000000     0.534260000000    -0.384096   
O58      O      0.444390000000     0.060510000000     0.521310000000    -0.386091   
O59      O      0.414770000000     0.988890000000     0.463380000000    -0.387716   
O60      O      0.476430000000     0.000870000000     0.592370000000    -0.389135   
O61      O      0.542290000000     0.996830000000     0.556240000000    -0.387924   
O62      O      0.480630000000     0.987180000000     0.427000000000    -0.389428   
O63      O      0.510920000000     0.058770000000     0.486650000000    -0.384558   
O64      O      0.511960000000     0.926370000000     0.496630000000    -0.387253   


