data_structure

_audit_creation_method RASPA-1.0
_audit_creation_date 2023-5-22
_audit_author_name 'Poobodin Mano'

_cell_length_a    46.9337
_cell_length_b    46.9183
_cell_length_c    39.3693
_cell_angle_alpha 90.0011
_cell_angle_beta  89.9989
_cell_angle_gamma 89.9948
_cell_volume      86693.1

_symmetry_cell_setting          triclinic
_symmetry_space_group_name_Hall 'P 1'
_symmetry_space_group_name_H-M  'P 1'
_symmetry_Int_Tables_number     1

_symmetry_equiv_pos_as_xyz 'x,y,z'

loop_
_atom_site_label
_atom_site_type_symbol
_atom_site_fract_x
_atom_site_fract_y
_atom_site_fract_z
_atom_site_charge
C1       C      0.411610000000     0.274080000000     0.964350000000     0.357179   
C2       C      0.491410000000     0.274330000000     0.060040000000     0.356292   
C3       C      0.411150000000     0.275550000000     0.059630000000     0.356132   
C4       C      0.491690000000     0.272920000000     0.964730000000     0.356196   
C5       C      0.177670000000     0.589790000000     0.963590000000     0.356241   
C6       C      0.178140000000     0.509510000000     0.058950000000     0.356064   
C7       C      0.178070000000     0.589730000000     0.058930000000     0.35659    
C8       C      0.177820000000     0.509450000000     0.963630000000     0.356231   
C9       C      0.490650000000     0.818300000000     0.058190000000     0.356328   
C10      C      0.410560000000     0.818810000000     0.962680000000     0.35633    
C11      C      0.490810000000     0.817980000000     0.962870000000     0.356457   
C12      C      0.410430000000     0.819130000000     0.058060000000     0.356262   
C13      C      0.725390000000     0.505040000000     0.059650000000     0.355647   
C14      C      0.725230000000     0.584880000000     0.963860000000     0.355964   
C15      C      0.725100000000     0.504770000000     0.964350000000     0.357361   
C16      C      0.725740000000     0.585180000000     0.059130000000     0.357281   
C17      C      0.224180000000     0.009480000000     0.558910000000     0.356097   
C18      C      0.224130000000     0.089800000000     0.463620000000     0.356359   
C19      C      0.223950000000     0.009530000000     0.463620000000     0.356469   
C20      C      0.224400000000     0.089810000000     0.558960000000     0.356034   
C21      C      0.910570000000     0.772600000000     0.462760000000     0.357198   
C22      C      0.990520000000     0.774050000000     0.558070000000     0.357458   
C23      C      0.910450000000     0.772890000000     0.558060000000     0.355845   
C24      C      0.990700000000     0.773990000000     0.462790000000     0.355855   
C25      C      0.679540000000     0.004410000000     0.558870000000     0.356184   
C26      C      0.679520000000     0.085290000000     0.464260000000     0.356187   
C27      C      0.679250000000     0.005040000000     0.463520000000     0.356671   
C28      C      0.679830000000     0.084640000000     0.559620000000     0.35669    
C29      C      0.911410000000     0.318710000000     0.464640000000     0.356618   
C30      C      0.991140000000     0.319400000000     0.560580000000     0.356332   
C31      C      0.910880000000     0.318780000000     0.559960000000     0.356259   
C32      C      0.991610000000     0.319410000000     0.465210000000     0.35616    
C33      C      0.190430000000     0.345980000000     0.224430000000     0.356362   
C34      C      0.211570000000     0.253760000000     0.298800000000     0.356204   
C35      C      0.246990000000     0.289950000000     0.224060000000     0.356375   
C36      C      0.154970000000     0.309730000000     0.299240000000     0.356344   
C37      C      0.655500000000     0.285570000000     0.224840000000     0.356304   
C38      C      0.747700000000     0.305560000000     0.299630000000     0.356345   
C39      C      0.712150000000     0.341580000000     0.224960000000     0.356296   
C40      C      0.691170000000     0.249460000000     0.299550000000     0.356206   
C41      C      0.710330000000     0.340800000000     0.799550000000     0.357076   
C42      C      0.691700000000     0.248430000000     0.724750000000     0.356507   
C43      C      0.655240000000     0.283460000000     0.799500000000     0.355961   
C44      C      0.746940000000     0.305770000000     0.724790000000     0.356049   
C45      C      0.654670000000     0.805870000000     0.222910000000     0.356188   
C46      C      0.746650000000     0.785790000000     0.297810000000     0.35677    
C47      C      0.710900000000     0.749740000000     0.223030000000     0.357205   
C48      C      0.690330000000     0.841760000000     0.297710000000     0.356108   
C49      C      0.690980000000     0.840470000000     0.723900000000     0.356283   
C50      C      0.711670000000     0.748410000000     0.798690000000     0.356498   
C51      C      0.747310000000     0.784180000000     0.723930000000     0.356472   
C52      C      0.655220000000     0.804670000000     0.798710000000     0.356344   
C53      C      0.190870000000     0.753260000000     0.224260000000     0.356544   
C54      C      0.211470000000     0.845360000000     0.299020000000     0.356529   
C55      C      0.247220000000     0.809490000000     0.224190000000     0.356      
C56      C      0.155150000000     0.788960000000     0.299000000000     0.35625    
C57      C      0.211140000000     0.845170000000     0.723200000000     0.356115   
C58      C      0.189210000000     0.753420000000     0.798090000000     0.355867   
C59      C      0.153940000000     0.789920000000     0.723410000000     0.357246   
C60      C      0.246450000000     0.808730000000     0.797870000000     0.356246   
C61      C      0.248020000000     0.289610000000     0.799300000000     0.356982   
C62      C      0.155460000000     0.308690000000     0.724990000000     0.356184   
C63      C      0.190870000000     0.344970000000     0.799630000000     0.356061   
C64      C      0.212650000000     0.253270000000     0.724620000000     0.355961   
C65      C      0.044310000000     0.293100000000     0.625890000000    -0.0660661  
C66      C      0.058320000000     0.318390000000     0.635160000000     0.0226289  
C67      C      0.049610000000     0.344210000000     0.620300000000    -0.066014   
C68      C      0.027500000000     0.344670000000     0.596470000000     0.0230638  
C69      C      0.013790000000     0.319270000000     0.586800000000    -0.104911   
C70      C      0.022360000000     0.293520000000     0.601950000000     0.0234012  
C71      C      0.082500000000     0.317530000000     0.659460000000     0.0226464  
C72      C      0.081060000000     0.300490000000     0.688770000000    -0.0661805  
C73      C      0.104490000000     0.298190000000     0.710490000000     0.0231025  
C74      C      0.129970000000     0.312780000000     0.703310000000    -0.104815   
C75      C      0.131150000000     0.330370000000     0.674420000000     0.0232825  
C76      C      0.107650000000     0.332780000000     0.652780000000    -0.0659366  
C77      C      0.044940000000     0.293370000000     0.399920000000    -0.0660588  
C78      C      0.058760000000     0.318750000000     0.390580000000     0.0226732  
C79      C      0.050020000000     0.344500000000     0.405550000000    -0.066086   
C80      C      0.027980000000     0.344820000000     0.429480000000     0.0230931  
C81      C      0.014380000000     0.319360000000     0.439130000000    -0.104792   
C82      C      0.023060000000     0.293650000000     0.423960000000     0.0232998  
C83      C      0.082710000000     0.318080000000     0.365940000000     0.0226046  
C84      C      0.107860000000     0.333430000000     0.372290000000    -0.0659121  
C85      C      0.131120000000     0.331230000000     0.350260000000     0.023263   
C86      C      0.129690000000     0.313740000000     0.321290000000    -0.104874   
C87      C      0.104190000000     0.299070000000     0.314430000000     0.0231171  
C88      C      0.081010000000     0.301160000000     0.336550000000    -0.0661595  
C89      C      0.852790000000     0.342580000000     0.404580000000    -0.0661217  
C90      C      0.844420000000     0.316600000000     0.389870000000     0.0227092  
C91      C      0.858680000000     0.291500000000     0.399360000000    -0.066148   
C92      C      0.880560000000     0.292280000000     0.423370000000     0.023492   
C93      C      0.888800000000     0.318200000000     0.438370000000    -0.105053   
C94      C      0.874830000000     0.343390000000     0.428490000000     0.0232071  
C95      C      0.820330000000     0.315360000000     0.365470000000     0.0226355  
C96      C      0.795010000000     0.330410000000     0.371920000000    -0.0659374  
C97      C      0.771610000000     0.327680000000     0.350190000000     0.0232926  
C98      C      0.773070000000     0.309950000000     0.321430000000    -0.104893   
C99      C      0.798700000000     0.295560000000     0.314480000000     0.023149   
C100     C      0.822030000000     0.298180000000     0.336300000000    -0.0662016  
C101     C      0.857730000000     0.291840000000     0.624910000000    -0.0659586  
C102     C      0.843300000000     0.316940000000     0.634020000000     0.0225719  
C103     C      0.851580000000     0.342830000000     0.619000000000    -0.0659781  
C104     C      0.873780000000     0.343550000000     0.595290000000     0.0230298  
C105     C      0.887980000000     0.318350000000     0.585890000000    -0.104726   
C106     C      0.879750000000     0.292510000000     0.601080000000     0.0232526  
C107     C      0.819270000000     0.315820000000     0.658520000000     0.0226101  
C108     C      0.793780000000     0.330560000000     0.651960000000    -0.0658567  
C109     C      0.770470000000     0.327840000000     0.673850000000     0.0230882  
C110     C      0.772200000000     0.310430000000     0.702870000000    -0.104794   
C111     C      0.798020000000     0.296420000000     0.709930000000     0.0230506  
C112     C      0.821250000000     0.299030000000     0.687970000000    -0.0662473  
C113     C      0.667380000000     0.200840000000     0.652480000000    -0.0658375  
C114     C      0.682700000000     0.175680000000     0.658890000000     0.0225748  
C115     C      0.699960000000     0.174180000000     0.688010000000    -0.0660843  
C116     C      0.702340000000     0.197540000000     0.709840000000     0.0231393  
C117     C      0.687630000000     0.223000000000     0.702940000000    -0.104837   
C118     C      0.669860000000     0.224270000000     0.674210000000     0.0232472  
C119     C      0.681630000000     0.151560000000     0.634520000000     0.0226882  
C120     C      0.655680000000     0.142950000000     0.619940000000    -0.0660655  
C121     C      0.654980000000     0.120940000000     0.595990000000     0.0231426  
C122     C      0.680260000000     0.107210000000     0.585940000000    -0.105058   
C123     C      0.706150000000     0.115670000000     0.600830000000     0.023453   
C124     C      0.706810000000     0.137530000000     0.624880000000    -0.0661101  
C125     C      0.655060000000     0.144340000000     0.405100000000    -0.0659922  
C126     C      0.680870000000     0.152800000000     0.390080000000     0.0226304  
C127     C      0.706070000000     0.138550000000     0.399190000000    -0.0660203  
C128     C      0.705550000000     0.116550000000     0.423060000000     0.0233064  
C129     C      0.679780000000     0.108160000000     0.438290000000    -0.104781   
C130     C      0.654490000000     0.122170000000     0.428850000000     0.0230395  
C131     C      0.681830000000     0.176880000000     0.365630000000     0.0225549  
C132     C      0.698660000000     0.175120000000     0.336190000000    -0.0661082  
C133     C      0.701070000000     0.198420000000     0.314280000000     0.0230653  
C134     C      0.686810000000     0.224090000000     0.321400000000    -0.104674   
C135     C      0.669390000000     0.225620000000     0.350420000000     0.0230734  
C136     C      0.666870000000     0.202230000000     0.372240000000    -0.0657867  
C137     C      0.666250000000     0.888820000000     0.370610000000    -0.0658065  
C138     C      0.681090000000     0.914220000000     0.363940000000     0.0225505  
C139     C      0.697760000000     0.916090000000     0.334370000000    -0.0662142  
C140     C      0.700130000000     0.892830000000     0.312400000000     0.0229642  
C141     C      0.686000000000     0.867100000000     0.319590000000    -0.104903   
C142     C      0.668730000000     0.865480000000     0.348730000000     0.0231963  
C143     C      0.680230000000     0.938210000000     0.388490000000     0.0226748  
C144     C      0.654480000000     0.946590000000     0.403740000000    -0.0660854  
C145     C      0.654030000000     0.968580000000     0.427740000000     0.0232041  
C146     C      0.679370000000     0.982480000000     0.437190000000    -0.105095   
C147     C      0.705070000000     0.974210000000     0.421680000000     0.0234841  
C148     C      0.705470000000     0.952400000000     0.397570000000    -0.0660681  
C149     C      0.698760000000     0.914690000000     0.687000000000    -0.066158   
C150     C      0.681810000000     0.912950000000     0.657660000000     0.0226004  
C151     C      0.666690000000     0.887670000000     0.651190000000    -0.0658425  
C152     C      0.669160000000     0.864330000000     0.673070000000     0.0231676  
C153     C      0.686700000000     0.865810000000     0.701990000000    -0.104739   
C154     C      0.701120000000     0.891420000000     0.708970000000     0.0231042  
C155     C      0.680880000000     0.936990000000     0.633160000000     0.0226966  
C156     C      0.655040000000     0.945580000000     0.618300000000    -0.0660666  
C157     C      0.654490000000     0.967720000000     0.594500000000     0.0231381  
C158     C      0.679810000000     0.981570000000     0.584860000000    -0.104948   
C159     C      0.705600000000     0.973040000000     0.599920000000     0.0234965  
C160     C      0.706120000000     0.951070000000     0.623830000000    -0.0661553  
C161     C      0.080620000000     0.795580000000     0.335300000000    -0.0661226  
C162     C      0.082320000000     0.778270000000     0.364360000000     0.0225595  
C163     C      0.107740000000     0.763410000000     0.370880000000    -0.065808   
C164     C      0.131220000000     0.766440000000     0.349320000000     0.023167   
C165     C      0.129740000000     0.784290000000     0.320670000000    -0.104749   
C166     C      0.104030000000     0.798500000000     0.313660000000     0.0231397  
C167     C      0.058130000000     0.776770000000     0.388600000000     0.022613   
C168     C      0.043700000000     0.801740000000     0.398180000000    -0.066119   
C169     C      0.021690000000     0.800730000000     0.422000000000     0.0232681  
C170     C      0.013460000000     0.774690000000     0.436720000000    -0.105002   
C171     C      0.027610000000     0.749610000000     0.426770000000     0.0228233  
C172     C      0.049800000000     0.750670000000     0.403050000000    -0.0660494  
C173     C      0.058980000000     0.758430000000     0.604950000000    -0.0653992  
C174     C      0.057590000000     0.777710000000     0.632390000000     0.0230338  
C175     C      0.033140000000     0.795010000000     0.635490000000    -0.0656729  
C176     C      0.011400000000     0.793840000000     0.611280000000     0.0253346  
C177     C      0.013050000000     0.774650000000     0.584080000000    -0.10633    
C178     C      0.036760000000     0.756620000000     0.581390000000     0.0250329  
C179     C      0.081770000000     0.780380000000     0.656990000000     0.0230435  
C180     C      0.099740000000     0.757030000000     0.664090000000    -0.0655527  
C181     C      0.123220000000     0.760080000000     0.685670000000     0.0250025  
C182     C      0.128720000000     0.786240000000     0.701570000000    -0.106263   
C183     C      0.110490000000     0.809340000000     0.695470000000     0.0250119  
C184     C      0.087580000000     0.806600000000     0.673070000000    -0.0656289  
C185     C      0.821460000000     0.791860000000     0.686920000000    -0.0661789  
C186     C      0.819740000000     0.774690000000     0.657750000000     0.0226492  
C187     C      0.794530000000     0.759420000000     0.651490000000    -0.0659281  
C188     C      0.771200000000     0.762000000000     0.673360000000     0.0233268  
C189     C      0.772640000000     0.779780000000     0.702080000000    -0.10497    
C190     C      0.798210000000     0.794320000000     0.708890000000     0.0231843  
C191     C      0.843660000000     0.773830000000     0.633100000000     0.0226075  
C192     C      0.857380000000     0.799170000000     0.623420000000    -0.0661603  
C193     C      0.879140000000     0.798760000000     0.599280000000     0.0233772  
C194     C      0.887850000000     0.772970000000     0.584330000000    -0.105099   
C195     C      0.874400000000     0.747530000000     0.594340000000     0.0229217  
C196     C      0.852430000000     0.747980000000     0.618370000000    -0.0660864  
C197     C      0.867550000000     0.791850000000     0.385100000000    -0.065712   
C198     C      0.843200000000     0.774500000000     0.388790000000     0.023119   
C199     C      0.842100000000     0.755560000000     0.416590000000    -0.0654824  
C200     C      0.864470000000     0.754250000000     0.440010000000     0.025093   
C201     C      0.888010000000     0.772450000000     0.436800000000    -0.106326   
C202     C      0.889410000000     0.791200000000     0.409160000000     0.0254068  
C203     C      0.818790000000     0.776870000000     0.364460000000     0.0228928  
C204     C      0.812860000000     0.802940000000     0.348110000000    -0.0656029  
C205     C      0.789910000000     0.805440000000     0.325770000000     0.0248907  
C206     C      0.771710000000     0.782260000000     0.319970000000    -0.105986   
C207     C      0.777210000000     0.756270000000     0.336290000000     0.0245115  
C208     C      0.800750000000     0.753450000000     0.357860000000    -0.0653669  
C209     C      0.197340000000     0.142810000000     0.398410000000    -0.0660764  
C210     C      0.222500000000     0.157030000000     0.389090000000     0.0226273  
C211     C      0.248380000000     0.148590000000     0.403970000000    -0.065969   
C212     C      0.249050000000     0.126480000000     0.427820000000     0.0229929  
C213     C      0.223790000000     0.112530000000     0.437480000000    -0.104858   
C214     C      0.197960000000     0.120880000000     0.422360000000     0.02339    
C215     C      0.221420000000     0.181110000000     0.364650000000     0.022591   
C216     C      0.204410000000     0.179350000000     0.335340000000    -0.0661547  
C217     C      0.201830000000     0.202680000000     0.313500000000     0.0230484  
C218     C      0.216090000000     0.228370000000     0.320560000000    -0.104734   
C219     C      0.233690000000     0.229870000000     0.349420000000     0.0231993  
C220     C      0.236380000000     0.206470000000     0.371180000000    -0.0659093  
C221     C      0.205610000000     0.179030000000     0.687630000000    -0.0661076  
C222     C      0.222320000000     0.181010000000     0.658120000000     0.0224694  
C223     C      0.237120000000     0.206470000000     0.651590000000    -0.0656865  
C224     C      0.234530000000     0.229760000000     0.673560000000     0.0229361  
C225     C      0.217190000000     0.228020000000     0.702630000000    -0.104696   
C226     C      0.203120000000     0.202220000000     0.709670000000     0.0229259  
C227     C      0.223240000000     0.157050000000     0.633490000000     0.0226933  
C228     C      0.249020000000     0.148690000000     0.618290000000    -0.0660704  
C229     C      0.249530000000     0.126590000000     0.594420000000     0.0230155  
C230     C      0.224220000000     0.112570000000     0.585060000000    -0.104817   
C231     C      0.198500000000     0.120880000000     0.600460000000     0.0234032  
C232     C      0.198030000000     0.142800000000     0.624440000000    -0.0661335  
C233     C      0.197460000000     0.956550000000     0.624230000000    -0.0660692  
C234     C      0.222510000000     0.941880000000     0.632960000000     0.0226253  
C235     C      0.248320000000     0.950000000000     0.617650000000    -0.0659839  
C236     C      0.249020000000     0.972240000000     0.593980000000     0.0230587  
C237     C      0.223860000000     0.986650000000     0.584910000000    -0.104865   
C238     C      0.198110000000     0.978610000000     0.600440000000     0.0234157  
C239     C      0.221370000000     0.917750000000     0.657320000000     0.0225464  
C240     C      0.204870000000     0.919760000000     0.687000000000    -0.0661981  
C241     C      0.202180000000     0.896440000000     0.708820000000     0.0229061  
C242     C      0.215820000000     0.870490000000     0.701370000000    -0.104851   
C243     C      0.232930000000     0.868710000000     0.672110000000     0.0231348  
C244     C      0.235740000000     0.892120000000     0.650370000000    -0.0658324  
C245     C      0.197020000000     0.956390000000     0.398620000000    -0.0661604  
C246     C      0.222160000000     0.942130000000     0.389310000000     0.0226865  
C247     C      0.248070000000     0.950600000000     0.404100000000    -0.066044   
C248     C      0.248780000000     0.972760000000     0.427870000000     0.0230718  
C249     C      0.223540000000     0.986750000000     0.437540000000    -0.104914   
C250     C      0.197690000000     0.978380000000     0.422500000000     0.0234795  
C251     C      0.221060000000     0.918010000000     0.364930000000     0.0226037  
C252     C      0.236060000000     0.892670000000     0.371480000000    -0.0659086  
C253     C      0.233430000000     0.869260000000     0.349720000000     0.0232729  
C254     C      0.215850000000     0.870730000000     0.320840000000    -0.104937   
C255     C      0.201520000000     0.896390000000     0.313790000000     0.023175   
C256     C      0.204040000000     0.919720000000     0.335630000000    -0.0661859  
C257     C      0.749550000000     0.446620000000     0.119870000000    -0.0660632  
C258     C      0.723610000000     0.438190000000     0.134630000000     0.0226084  
C259     C      0.698470000000     0.452330000000     0.125080000000    -0.0661743  
C260     C      0.699160000000     0.474140000000     0.100990000000     0.0233468  
C261     C      0.725030000000     0.482470000000     0.085970000000    -0.105008   
C262     C      0.750280000000     0.468620000000     0.095880000000     0.0228294  
C263     C      0.722420000000     0.414170000000     0.159140000000     0.0225988  
C264     C      0.737380000000     0.388790000000     0.152740000000    -0.0658268  
C265     C      0.734530000000     0.365400000000     0.174480000000     0.0231841  
C266     C      0.716770000000     0.366950000000     0.203210000000    -0.104794   
C267     C      0.702530000000     0.392670000000     0.210160000000     0.0230945  
C268     C      0.705270000000     0.415980000000     0.188320000000    -0.0661714  
C269     C      0.742080000000     0.654050000000     0.104860000000    -0.0655361  
C270     C      0.723140000000     0.652900000000     0.132640000000     0.0231616  
C271     C      0.706030000000     0.628390000000     0.136490000000    -0.065826   
C272     C      0.706920000000     0.606420000000     0.112570000000     0.0255097  
C273     C      0.725670000000     0.607870000000     0.084940000000    -0.106447   
C274     C      0.743620000000     0.631570000000     0.081590000000     0.0252128  
C275     C      0.720510000000     0.677400000000     0.156800000000     0.0229029  
C276     C      0.743750000000     0.695670000000     0.163350000000    -0.0653786  
C277     C      0.740700000000     0.719290000000     0.184770000000     0.0246028  
C278     C      0.714650000000     0.724630000000     0.200990000000    -0.106194   
C279     C      0.691640000000     0.706210000000     0.195250000000     0.024982   
C280     C      0.694370000000     0.683180000000     0.173050000000    -0.0656595  
C281     C      0.698090000000     0.637730000000     0.898710000000    -0.066218   
C282     C      0.723220000000     0.651770000000     0.888950000000     0.0226843  
C283     C      0.749220000000     0.643240000000     0.903470000000    -0.0661     
C284     C      0.750020000000     0.621220000000     0.927430000000     0.022909   
C285     C      0.724780000000     0.607470000000     0.937560000000    -0.105068   
C286     C      0.698850000000     0.615900000000     0.922780000000     0.0234192  
C287     C      0.721980000000     0.675800000000     0.864480000000     0.0225702  
C288     C      0.704680000000     0.674060000000     0.835410000000    -0.0661199  
C289     C      0.701910000000     0.697380000000     0.813600000000     0.0231872  
C290     C      0.716270000000     0.723050000000     0.820450000000    -0.104949   
C291     C      0.734150000000     0.724540000000     0.849060000000     0.023306   
C292     C      0.737030000000     0.701140000000     0.870790000000    -0.065854   
C293     C      0.742880000000     0.395140000000     0.859000000000    -0.0654467  
C294     C      0.719460000000     0.413060000000     0.865960000000     0.0229889  
C295     C      0.693290000000     0.407080000000     0.849870000000    -0.0655899  
C296     C      0.690690000000     0.384120000000     0.827510000000     0.0250112  
C297     C      0.713870000000     0.365990000000     0.821490000000    -0.106156   
C298     C      0.739970000000     0.371600000000     0.837460000000     0.0248701  
C299     C      0.721980000000     0.437360000000     0.890420000000     0.0230831  
C300     C      0.741220000000     0.436180000000     0.917920000000    -0.0654502  
C301     C      0.742860000000     0.458530000000     0.941340000000     0.0251191  
C302     C      0.724720000000     0.482130000000     0.938460000000    -0.106273   
C303     C      0.705590000000     0.483570000000     0.911190000000     0.0253132  
C304     C      0.704590000000     0.461720000000     0.887110000000    -0.065666   
C305     C      0.607500000000     0.830130000000     0.150190000000    -0.0658652  
C306     C      0.582070000000     0.815370000000     0.156940000000     0.0225741  
C307     C      0.580270000000     0.798590000000     0.186430000000    -0.0662073  
C308     C      0.603590000000     0.796090000000     0.208280000000     0.0229648  
C309     C      0.629320000000     0.810200000000     0.201050000000    -0.104906   
C310     C      0.630890000000     0.827520000000     0.171950000000     0.023271   
C311     C      0.557950000000     0.816490000000     0.132590000000     0.0226222  
C312     C      0.549680000000     0.842370000000     0.117550000000    -0.0660228  
C313     C      0.527550000000     0.843090000000     0.093760000000     0.0231008  
C314     C      0.513380000000     0.817890000000     0.084310000000    -0.104884   
C315     C      0.521540000000     0.792060000000     0.099600000000     0.0233695  
C316     C      0.543500000000     0.791390000000     0.123510000000    -0.0660246  
C317     C      0.357310000000     0.793320000000     0.123700000000    -0.0660297  
C318     C      0.343440000000     0.818710000000     0.132910000000     0.022626   
C319     C      0.352110000000     0.844410000000     0.117750000000    -0.0660483  
C320     C      0.374110000000     0.844670000000     0.093760000000     0.0230588  
C321     C      0.387740000000     0.819190000000     0.084240000000    -0.104867   
C322     C      0.379140000000     0.793540000000     0.099610000000     0.0233444  
C323     C      0.319530000000     0.818080000000     0.157590000000     0.0225834  
C324     C      0.294310000000     0.833310000000     0.151170000000    -0.065841   
C325     C      0.271040000000     0.831060000000     0.173180000000     0.0231079  
C326     C      0.272530000000     0.813630000000     0.202200000000    -0.104651   
C327     C      0.298090000000     0.799120000000     0.209150000000     0.0230765  
C328     C      0.321290000000     0.801260000000     0.187050000000    -0.0661959  
C329     C      0.320680000000     0.800040000000     0.834450000000    -0.0661778  
C330     C      0.319260000000     0.817140000000     0.863710000000     0.022624   
C331     C      0.294190000000     0.832570000000     0.870240000000    -0.0658512  
C332     C      0.270750000000     0.830310000000     0.848510000000     0.0232452  
C333     C      0.271910000000     0.812670000000     0.819650000000    -0.104775   
C334     C      0.297300000000     0.797890000000     0.812610000000     0.0231027  
C335     C      0.343380000000     0.817910000000     0.888090000000     0.0226124  
C336     C      0.357230000000     0.792560000000     0.897520000000    -0.0660579  
C337     C      0.379150000000     0.792930000000     0.921480000000     0.0234034  
C338     C      0.387870000000     0.818690000000     0.936500000000    -0.104858   
C339     C      0.374310000000     0.844130000000     0.926700000000     0.023062   
C340     C      0.352220000000     0.843720000000     0.902840000000    -0.0659728  
C341     C      0.543980000000     0.790630000000     0.898170000000    -0.0661182  
C342     C      0.558360000000     0.815690000000     0.888800000000     0.022688   
C343     C      0.549950000000     0.841690000000     0.903450000000    -0.0660428  
C344     C      0.527740000000     0.842550000000     0.927140000000     0.0231903  
C345     C      0.513630000000     0.817400000000     0.936870000000    -0.105031   
C346     C      0.521940000000     0.791460000000     0.921970000000     0.0235044  
C347     C      0.582530000000     0.814440000000     0.864500000000     0.0225817  
C348     C      0.607860000000     0.829420000000     0.871050000000    -0.0657829  
C349     C      0.631290000000     0.826720000000     0.849350000000     0.0231121  
C350     C      0.629840000000     0.809070000000     0.820520000000    -0.104688   
C351     C      0.604200000000     0.794730000000     0.813480000000     0.0230695  
C352     C      0.580850000000     0.797330000000     0.835270000000    -0.0661016  
C353     C      0.153950000000     0.648300000000     0.118950000000    -0.0660236  
C354     C      0.179880000000     0.656730000000     0.133720000000     0.0226755  
C355     C      0.205020000000     0.642570000000     0.124210000000    -0.0661571  
C356     C      0.204340000000     0.620720000000     0.100170000000     0.0235482  
C357     C      0.178470000000     0.612390000000     0.085150000000    -0.105032   
C358     C      0.153230000000     0.626280000000     0.095000000000     0.0231468  
C359     C      0.181010000000     0.680750000000     0.158230000000     0.0226418  
C360     C      0.165990000000     0.706090000000     0.151840000000    -0.065886   
C361     C      0.168700000000     0.729450000000     0.173650000000     0.0232829  
C362     C      0.186400000000     0.727920000000     0.202430000000    -0.104985   
C363     C      0.200740000000     0.702250000000     0.209340000000     0.0232181  
C364     C      0.198130000000     0.678960000000     0.187440000000    -0.0662204  
C365     C      0.165760000000     0.393150000000     0.151890000000    -0.0658843  
C366     C      0.180870000000     0.418450000000     0.158250000000     0.0226247  
C367     C      0.197940000000     0.420220000000     0.187500000000    -0.0661531  
C368     C      0.200420000000     0.396960000000     0.209470000000     0.0231337  
C369     C      0.186000000000     0.371330000000     0.202590000000    -0.104882   
C370     C      0.168350000000     0.369820000000     0.173770000000     0.0232619  
C371     C      0.179820000000     0.442460000000     0.133710000000     0.0226206  
C372     C      0.205000000000     0.456570000000     0.124220000000    -0.0660376  
C373     C      0.204380000000     0.478430000000     0.100170000000     0.023372   
C374     C      0.178530000000     0.486830000000     0.085140000000    -0.104837   
C375     C      0.153260000000     0.472980000000     0.094970000000     0.023066   
C376     C      0.153920000000     0.450950000000     0.118900000000    -0.0660096  
C377     C      0.166290000000     0.391970000000     0.872430000000    -0.0657744  
C378     C      0.180570000000     0.417620000000     0.865380000000     0.0225772  
C379     C      0.197020000000     0.419620000000     0.835660000000    -0.0663046  
C380     C      0.199730000000     0.396270000000     0.813900000000     0.0230139  
C381     C      0.186180000000     0.370300000000     0.821440000000    -0.104836   
C382     C      0.169120000000     0.368520000000     0.850740000000     0.0230962  
C383     C      0.179440000000     0.441780000000     0.889700000000     0.0226886  
C384     C      0.153640000000     0.449880000000     0.905040000000    -0.0660041  
C385     C      0.152950000000     0.472160000000     0.928670000000     0.0230664  
C386     C      0.178110000000     0.486600000000     0.937650000000    -0.104853   
C387     C      0.203850000000     0.478570000000     0.922070000000     0.0234718  
C388     C      0.204480000000     0.456490000000     0.898330000000    -0.0661172  
C389     C      0.164840000000     0.706580000000     0.871140000000    -0.0657311  
C390     C      0.179640000000     0.681120000000     0.864570000000     0.0225026  
C391     C      0.196300000000     0.679150000000     0.835010000000    -0.066131   
C392     C      0.198750000000     0.702360000000     0.812980000000     0.0229571  
C393     C      0.184690000000     0.728160000000     0.820060000000    -0.10473    
C394     C      0.167400000000     0.729880000000     0.849180000000     0.023002   
C395     C      0.178760000000     0.657140000000     0.889160000000     0.0226168  
C396     C      0.203970000000     0.642850000000     0.898140000000    -0.0660515  
C397     C      0.203530000000     0.620900000000     0.922080000000     0.0233581  
C398     C      0.177830000000     0.612580000000     0.937520000000    -0.104813   
C399     C      0.152520000000     0.626630000000     0.928240000000     0.0230403  
C400     C      0.153000000000     0.648770000000     0.904420000000    -0.0659796  
C401     C      0.321100000000     0.297780000000     0.186880000000    -0.0661194  
C402     C      0.319510000000     0.280250000000     0.158000000000     0.022572   
C403     C      0.294310000000     0.264920000000     0.151860000000    -0.0658472  
C404     C      0.270940000000     0.267650000000     0.173630000000     0.0232049  
C405     C      0.272310000000     0.285660000000     0.202150000000    -0.104829   
C406     C      0.297810000000     0.300400000000     0.208760000000     0.0231079  
C407     C      0.343650000000     0.278770000000     0.133700000000     0.0226234  
C408     C      0.357820000000     0.303760000000     0.123640000000    -0.0660902  
C409     C      0.379830000000     0.302660000000     0.099820000000     0.0234238  
C410     C      0.388320000000     0.276510000000     0.085600000000    -0.105099   
C411     C      0.374410000000     0.251440000000     0.096020000000     0.0230226  
C412     C      0.352240000000     0.252570000000     0.119720000000    -0.0661295  
C413     C      0.544730000000     0.300990000000     0.124980000000    -0.0659971  
C414     C      0.558750000000     0.275730000000     0.134420000000     0.0226093  
C415     C      0.550040000000     0.249850000000     0.119740000000    -0.0660057  
C416     C      0.527890000000     0.249280000000     0.095960000000     0.0230277  
C417     C      0.514150000000     0.274630000000     0.086160000000    -0.104771   
C418     C      0.522750000000     0.300460000000     0.101090000000     0.0233301  
C419     C      0.582860000000     0.276670000000     0.158810000000     0.0226191  
C420     C      0.608040000000     0.261390000000     0.152320000000    -0.0658371  
C421     C      0.631450000000     0.263800000000     0.174120000000     0.0231277  
C422     C      0.630120000000     0.281430000000     0.202980000000    -0.104772   
C423     C      0.604610000000     0.296040000000     0.209950000000     0.0231138  
C424     C      0.581290000000     0.293740000000     0.188070000000    -0.0661568  
C425     C      0.544510000000     0.298190000000     0.898560000000    -0.0662734  
C426     C      0.558840000000     0.272870000000     0.890140000000     0.0227012  
C427     C      0.550590000000     0.247330000000     0.906010000000    -0.066024   
C428     C      0.528490000000     0.247160000000     0.929890000000     0.0230832  
C429     C      0.514410000000     0.272600000000     0.938610000000    -0.105048   
C430     C      0.522630000000     0.298070000000     0.922550000000     0.0234938  
C431     C      0.582790000000     0.273520000000     0.865550000000     0.0224985  
C432     C      0.580680000000     0.289670000000     0.835610000000    -0.0662139  
C433     C      0.603940000000     0.292210000000     0.813710000000     0.0229343  
C434     C      0.629940000000     0.278740000000     0.821320000000    -0.104858   
C435     C      0.631790000000     0.261860000000     0.850760000000     0.0231331  
C436     C      0.608430000000     0.259210000000     0.872600000000    -0.0657482  
C437     C      0.302140000000     0.256600000000     0.858670000000    -0.0654936  
C438     C      0.320340000000     0.279840000000     0.865460000000     0.0229605  
C439     C      0.314660000000     0.306020000000     0.849220000000    -0.0655825  
C440     C      0.291700000000     0.308820000000     0.826920000000     0.024951   
C441     C      0.273270000000     0.285840000000     0.821090000000    -0.106121   
C442     C      0.278610000000     0.259720000000     0.837170000000     0.0248364  
C443     C      0.344600000000     0.277130000000     0.889950000000     0.0230872  
C444     C      0.343160000000     0.258080000000     0.917620000000    -0.0654717  
C445     C      0.365410000000     0.256390000000     0.941170000000     0.0250773  
C446     C      0.389170000000     0.274300000000     0.938220000000    -0.106326   
C447     C      0.390900000000     0.293180000000     0.910730000000     0.025404   
C448     C      0.369150000000     0.294230000000     0.886540000000    -0.0657373  
Cu1      Cu     0.451020000000     0.247750000000     0.012810000000     0.83438    
Cu2      Cu     0.451860000000     0.300530000000     0.011580000000     0.844861   
Cu3      Cu     0.151460000000     0.549590000000     0.011380000000     0.833691   
Cu4      Cu     0.204210000000     0.549660000000     0.011110000000     0.844945   
Cu5      Cu     0.450330000000     0.792250000000     0.010570000000     0.844289   
Cu6      Cu     0.450870000000     0.845020000000     0.010320000000     0.83417    
Cu7      Cu     0.699050000000     0.545040000000     0.011900000000     0.845216   
Cu8      Cu     0.751850000000     0.544890000000     0.011600000000     0.834316   
Cu9      Cu     0.197880000000     0.049730000000     0.511390000000     0.845115   
Cu10     Cu     0.250630000000     0.049590000000     0.511190000000     0.833673   
Cu11     Cu     0.950970000000     0.746890000000     0.510470000000     0.834667   
Cu12     Cu     0.950140000000     0.799710000000     0.510340000000     0.845273   
Cu13     Cu     0.653080000000     0.044940000000     0.511680000000     0.834654   
Cu14     Cu     0.705840000000     0.044760000000     0.511440000000     0.844792   
Cu15     Cu     0.951490000000     0.292770000000     0.512620000000     0.844873   
Cu16     Cu     0.951050000000     0.345550000000     0.512600000000     0.83426    
Cu17     Cu     0.215470000000     0.314420000000     0.281380000000     0.838981   
Cu18     Cu     0.186500000000     0.285330000000     0.241890000000     0.839661   
Cu19     Cu     0.687160000000     0.310090000000     0.282010000000     0.839469   
Cu20     Cu     0.716060000000     0.280960000000     0.242470000000     0.839449   
Cu21     Cu     0.686250000000     0.308880000000     0.742440000000     0.840649   
Cu22     Cu     0.715930000000     0.280410000000     0.781880000000     0.838808   
Cu23     Cu     0.715230000000     0.810300000000     0.240650000000     0.839853   
Cu24     Cu     0.686160000000     0.781150000000     0.280060000000     0.839824   
Cu25     Cu     0.715780000000     0.808990000000     0.781040000000     0.839755   
Cu26     Cu     0.686760000000     0.779890000000     0.741600000000     0.839429   
Cu27     Cu     0.186670000000     0.813830000000     0.241910000000     0.839485   
Cu28     Cu     0.215710000000     0.784770000000     0.281360000000     0.83947    
Cu29     Cu     0.214360000000     0.784460000000     0.740860000000     0.839371   
Cu30     Cu     0.185950000000     0.814130000000     0.780390000000     0.839691   
Cu31     Cu     0.215990000000     0.313950000000     0.742400000000     0.840031   
Cu32     Cu     0.187570000000     0.284290000000     0.781910000000     0.839026   
H1       H      0.059860000000     0.364070000000     0.627170000000     0.0467972  
H2       H      0.021420000000     0.364880000000     0.585330000000     0.0353931  
H3       H      0.012280000000     0.273560000000     0.595150000000     0.035538   
H4       H      0.050750000000     0.272820000000     0.636560000000     0.0468494  
H5       H      0.061840000000     0.288770000000     0.694820000000     0.0466442  
H6       H      0.102770000000     0.284530000000     0.732570000000     0.0354555  
H7       H      0.150400000000     0.341950000000     0.668130000000     0.0356757  
H8       H      0.109500000000     0.345890000000     0.630250000000     0.0469763  
H9       H      0.060130000000     0.364420000000     0.398650000000     0.0468276  
H10      H      0.021820000000     0.365000000000     0.440640000000     0.0354281  
H11      H      0.013070000000     0.273640000000     0.430750000000     0.0355392  
H12      H      0.051430000000     0.273140000000     0.389160000000     0.0468586  
H13      H      0.109890000000     0.346460000000     0.394870000000     0.0469457  
H14      H      0.150400000000     0.342860000000     0.356310000000     0.0356102  
H15      H      0.102280000000     0.285480000000     0.292310000000     0.0354735  
H16      H      0.061770000000     0.289380000000     0.330740000000     0.0466454  
H17      H      0.852490000000     0.271100000000     0.388810000000     0.046864   
H18      H      0.890850000000     0.272460000000     0.430340000000     0.0355232  
H19      H      0.880650000000     0.363730000000     0.439510000000     0.0353665  
H20      H      0.842350000000     0.362300000000     0.397540000000     0.0468263  
H21      H      0.792960000000     0.343610000000     0.394350000000     0.0469775  
H22      H      0.752230000000     0.339120000000     0.356300000000     0.0356766  
H23      H      0.800620000000     0.281810000000     0.292500000000     0.0354098  
H24      H      0.841380000000     0.286610000000     0.330420000000     0.0466308  
H25      H      0.840990000000     0.362550000000     0.625730000000     0.0468002  
H26      H      0.879570000000     0.363820000000     0.584080000000     0.0354307  
H27      H      0.890210000000     0.272700000000     0.594480000000     0.0355305  
H28      H      0.851610000000     0.271500000000     0.635710000000     0.0468209  
H29      H      0.791540000000     0.343490000000     0.629330000000     0.0469871  
H30      H      0.750930000000     0.338970000000     0.667650000000     0.0357254  
H31      H      0.800190000000     0.282920000000     0.732100000000     0.0355098  
H32      H      0.840740000000     0.287730000000     0.693950000000     0.0466368  
H33      H      0.711760000000     0.154940000000     0.693840000000     0.046592   
H34      H      0.716150000000     0.195770000000     0.731790000000     0.0354046  
H35      H      0.658190000000     0.243520000000     0.668140000000     0.0357206  
H36      H      0.654110000000     0.202750000000     0.630080000000     0.0469211  
H37      H      0.635890000000     0.153200000000     0.627100000000     0.0467855  
H38      H      0.634670000000     0.114940000000     0.585080000000     0.0354066  
H39      H      0.726020000000     0.105570000000     0.593730000000     0.0355272  
H40      H      0.727180000000     0.143910000000     0.635340000000     0.0468535  
H41      H      0.726360000000     0.144820000000     0.388400000000     0.0468243  
H42      H      0.725440000000     0.106250000000     0.429690000000     0.0355341  
H43      H      0.634270000000     0.116240000000     0.440070000000     0.035389   
H44      H      0.635260000000     0.154780000000     0.398360000000     0.0467482  
H45      H      0.710140000000     0.155730000000     0.330180000000     0.0466075  
H46      H      0.714600000000     0.196430000000     0.292120000000     0.0354925  
H47      H      0.658060000000     0.245040000000     0.356660000000     0.0356519  
H48      H      0.653910000000     0.204320000000     0.394870000000     0.0469045  
H49      H      0.709160000000     0.935520000000     0.328340000000     0.0465708  
H50      H      0.713540000000     0.894880000000     0.290140000000     0.0352908  
H51      H      0.657510000000     0.846020000000     0.355030000000     0.0358053  
H52      H      0.653420000000     0.886660000000     0.393340000000     0.0470022  
H53      H      0.634660000000     0.936190000000     0.397040000000     0.046817   
H54      H      0.633870000000     0.974420000000     0.439160000000     0.0353405  
H55      H      0.724990000000     0.984450000000     0.428310000000     0.0355074  
H56      H      0.725710000000     0.946200000000     0.386590000000     0.0468004  
H57      H      0.653630000000     0.885610000000     0.628640000000     0.0469534  
H58      H      0.657710000000     0.844960000000     0.666950000000     0.0356612  
H59      H      0.714740000000     0.893380000000     0.731050000000     0.0354981  
H60      H      0.710370000000     0.934020000000     0.692890000000     0.0466565  
H61      H      0.635220000000     0.935270000000     0.625200000000     0.046801   
H62      H      0.634250000000     0.973760000000     0.583420000000     0.0353709  
H63      H      0.725520000000     0.983220000000     0.593130000000     0.0355276  
H64      H      0.726410000000     0.944700000000     0.634500000000     0.0469307  
H65      H      0.109780000000     0.750100000000     0.393230000000     0.0468758  
H66      H      0.150660000000     0.755130000000     0.355470000000     0.0356901  
H67      H      0.102070000000     0.812350000000     0.291760000000     0.035428   
H68      H      0.061190000000     0.807020000000     0.329380000000     0.0465572  
H69      H      0.049850000000     0.822230000000     0.387830000000     0.0468524  
H70      H      0.011270000000     0.820470000000     0.429010000000     0.0355512  
H71      H      0.021800000000     0.729200000000     0.437590000000     0.0352865  
H72      H      0.060380000000     0.731040000000     0.395950000000     0.0467796  
H73      H      0.030610000000     0.809530000000     0.656620000000     0.0461421  
H74      H      0.993100000000     0.807730000000     0.614050000000     0.0318545  
H75      H      0.038570000000     0.741820000000     0.560380000000     0.0322165  
H76      H      0.077520000000     0.745140000000     0.600950000000     0.046345   
H77      H      0.095780000000     0.736270000000     0.653100000000     0.0462975  
H78      H      0.136920000000     0.741880000000     0.690230000000     0.0323274  
H79      H      0.114540000000     0.829870000000     0.707120000000     0.0326216  
H80      H      0.074950000000     0.825380000000     0.667840000000     0.0462388  
H81      H      0.792490000000     0.746200000000     0.629070000000     0.0469499  
H82      H      0.751870000000     0.750440000000     0.667380000000     0.0356552  
H83      H      0.800140000000     0.808120000000     0.730820000000     0.0354432  
H84      H      0.840750000000     0.803600000000     0.692640000000     0.0466105  
H85      H      0.850850000000     0.819470000000     0.633980000000     0.0468925  
H86      H      0.889030000000     0.818760000000     0.592220000000     0.0355134  
H87      H      0.880580000000     0.727300000000     0.583330000000     0.0352437  
H88      H      0.842380000000     0.728090000000     0.625530000000     0.0468183  
H89      H      0.823680000000     0.742210000000     0.420970000000     0.0464307  
H90      H      0.862880000000     0.739770000000     0.461360000000     0.032006   
H91      H      0.907580000000     0.805190000000     0.405990000000     0.0316773  
H92      H      0.869890000000     0.806070000000     0.363650000000     0.0461448  
H93      H      0.825470000000     0.821790000000     0.353020000000     0.0462431  
H94      H      0.785850000000     0.825860000000     0.313850000000     0.0329071  
H95      H      0.763510000000     0.738040000000     0.332010000000     0.0324774  
H96      H      0.804760000000     0.732820000000     0.369160000000     0.0462713  
H97      H      0.268150000000     0.159010000000     0.397080000000     0.0467407  
H98      H      0.269310000000     0.120580000000     0.438940000000     0.0353448  
H99      H      0.178100000000     0.110610000000     0.429160000000     0.0355464  
H100     H      0.177010000000     0.149060000000     0.387730000000     0.0468578  
H101     H      0.192920000000     0.159960000000     0.329400000000     0.0466164  
H102     H      0.188180000000     0.200700000000     0.291450000000     0.0354665  
H103     H      0.245020000000     0.249300000000     0.355610000000     0.0356466  
H104     H      0.249460000000     0.208550000000     0.393700000000     0.0469597  
H105     H      0.250000000000     0.208720000000     0.628910000000     0.0469027  
H106     H      0.245700000000     0.249270000000     0.667380000000     0.0357455  
H107     H      0.189680000000     0.200050000000     0.731880000000     0.0355107  
H108     H      0.194260000000     0.159550000000     0.693580000000     0.0465658  
H109     H      0.268810000000     0.159150000000     0.624960000000     0.0468049  
H110     H      0.269710000000     0.120730000000     0.583060000000     0.0353527  
H111     H      0.178600000000     0.110560000000     0.593900000000     0.0355131  
H112     H      0.177780000000     0.148990000000     0.635380000000     0.0468927  
H113     H      0.268000000000     0.939210000000     0.624080000000     0.046786   
H114     H      0.269220000000     0.977880000000     0.582510000000     0.035311   
H115     H      0.178320000000     0.989230000000     0.594100000000     0.0355257  
H116     H      0.177180000000     0.950570000000     0.635260000000     0.0468118  
H117     H      0.193850000000     0.939360000000     0.693270000000     0.0465624  
H118     H      0.188920000000     0.898640000000     0.731180000000     0.0353814  
H119     H      0.243780000000     0.849070000000     0.665620000000     0.0357159  
H120     H      0.248430000000     0.889860000000     0.627550000000     0.0470005  
H121     H      0.267820000000     0.940150000000     0.397210000000     0.0467776  
H122     H      0.269060000000     0.978670000000     0.438930000000     0.0353695  
H123     H      0.177840000000     0.988690000000     0.429310000000     0.0355334  
H124     H      0.176680000000     0.950130000000     0.388000000000     0.0469266  
H125     H      0.249150000000     0.890630000000     0.394000000000     0.0469672  
H126     H      0.244810000000     0.849860000000     0.355910000000     0.0356223  
H127     H      0.187880000000     0.898340000000     0.291720000000     0.0354582  
H128     H      0.192520000000     0.939090000000     0.329670000000     0.0466404  
H129     H      0.678100000000     0.446090000000     0.135660000000     0.0468945  
H130     H      0.679300000000     0.484350000000     0.094010000000     0.0355314  
H131     H      0.770570000000     0.474510000000     0.084830000000     0.0352533  
H132     H      0.769290000000     0.436240000000     0.126940000000     0.0467742  
H133     H      0.750570000000     0.386670000000     0.130300000000     0.0468739  
H134     H      0.745860000000     0.345950000000     0.168390000000     0.0356744  
H135     H      0.688770000000     0.394670000000     0.232110000000     0.0354455  
H136     H      0.693780000000     0.435390000000     0.194160000000     0.0466042  
H137     H      0.691820000000     0.626020000000     0.157930000000     0.0461979  
H138     H      0.693110000000     0.588110000000     0.115860000000     0.0316844  
H139     H      0.758100000000     0.633210000000     0.060240000000     0.0320005  
H140     H      0.755250000000     0.672590000000     0.100360000000     0.0464183  
H141     H      0.764430000000     0.691780000000     0.152120000000     0.0462605  
H142     H      0.758810000000     0.733150000000     0.189010000000     0.0324697  
H143     H      0.671180000000     0.710150000000     0.207100000000     0.0329003  
H144     H      0.675650000000     0.670380000000     0.168170000000     0.0462737  
H145     H      0.768960000000     0.653540000000     0.896240000000     0.0468261  
H146     H      0.770360000000     0.615250000000     0.938310000000     0.0352755  
H147     H      0.679000000000     0.605760000000     0.929930000000     0.0355316  
H148     H      0.677680000000     0.644050000000     0.888310000000     0.0469297  
H149     H      0.693090000000     0.654680000000     0.829660000000     0.0465866  
H150     H      0.688040000000     0.695420000000     0.791730000000     0.0354342  
H151     H      0.745580000000     0.743940000000     0.855070000000     0.035686   
H152     H      0.750340000000     0.703210000000     0.893130000000     0.0469356  
H153     H      0.674450000000     0.419640000000     0.855020000000     0.0462437  
H154     H      0.670200000000     0.379970000000     0.815820000000     0.0326739  
H155     H      0.758220000000     0.357970000000     0.832960000000     0.0323369  
H156     H      0.763600000000     0.399210000000     0.870030000000     0.0462708  
H157     H      0.754590000000     0.417720000000     0.922050000000     0.0463854  
H158     H      0.757620000000     0.456880000000     0.962410000000     0.0321469  
H159     H      0.691620000000     0.501790000000     0.908280000000     0.0318449  
H160     H      0.690110000000     0.464100000000     0.865920000000     0.0461553  
H161     H      0.560830000000     0.787240000000     0.192530000000     0.0465678  
H162     H      0.601570000000     0.782630000000     0.230510000000     0.0352955  
H163     H      0.650360000000     0.838730000000     0.165620000000     0.0357857  
H164     H      0.609620000000     0.843030000000     0.127510000000     0.0469989  
H165     H      0.560270000000     0.862090000000     0.124270000000     0.0467966  
H166     H      0.521800000000     0.863350000000     0.082500000000     0.035393   
H167     H      0.511100000000     0.772240000000     0.092970000000     0.0355308  
H168     H      0.549610000000     0.771060000000     0.134330000000     0.0467812  
H169     H      0.341960000000     0.864340000000     0.124540000000     0.0467796  
H170     H      0.380200000000     0.864800000000     0.082440000000     0.0353616  
H171     H      0.389150000000     0.773510000000     0.092920000000     0.0355305  
H172     H      0.350880000000     0.773120000000     0.134610000000     0.0468376  
H173     H      0.292230000000     0.846270000000     0.128540000000     0.0469135  
H174     H      0.251700000000     0.842570000000     0.167070000000     0.0356364  
H175     H      0.300060000000     0.785580000000     0.231310000000     0.0354907  
H176     H      0.340570000000     0.789580000000     0.192920000000     0.0466669  
H177     H      0.292360000000     0.845730000000     0.892750000000     0.0469296  
H178     H      0.251550000000     0.842040000000     0.854680000000     0.0356812  
H179     H      0.299000000000     0.784180000000     0.790570000000     0.0354398  
H180     H      0.339840000000     0.788180000000     0.828520000000     0.0466606  
H181     H      0.350680000000     0.772290000000     0.886920000000     0.0468646  
H182     H      0.389130000000     0.772930000000     0.928390000000     0.0355429  
H183     H      0.380500000000     0.864350000000     0.937730000000     0.0354232  
H184     H      0.342100000000     0.863630000000     0.895860000000     0.0467645  
H185     H      0.560480000000     0.861390000000     0.896500000000     0.0467964  
H186     H      0.521880000000     0.862900000000     0.938090000000     0.0354015  
H187     H      0.511550000000     0.771660000000     0.928830000000     0.0355367  
H188     H      0.550190000000     0.770220000000     0.887660000000     0.0469024  
H189     H      0.609890000000     0.842580000000     0.893530000000     0.0469415  
H190     H      0.650680000000     0.838100000000     0.855520000000     0.0357019  
H191     H      0.602270000000     0.781030000000     0.791460000000     0.0354892  
H192     H      0.561480000000     0.785810000000     0.829320000000     0.0466225  
H193     H      0.225380000000     0.648820000000     0.134810000000     0.0468771  
H194     H      0.224200000000     0.610500000000     0.093220000000     0.0355291  
H195     H      0.132930000000     0.620380000000     0.083960000000     0.0353495  
H196     H      0.134190000000     0.658680000000     0.125990000000     0.0467811  
H197     H      0.152820000000     0.708200000000     0.129380000000     0.0469338  
H198     H      0.157300000000     0.748860000000     0.167580000000     0.0356612  
H199     H      0.214470000000     0.700250000000     0.231330000000     0.0354077  
H200     H      0.209680000000     0.659580000000     0.193270000000     0.0466486  
H201     H      0.209550000000     0.439570000000     0.193310000000     0.0466327  
H202     H      0.214120000000     0.398940000000     0.231480000000     0.0354364  
H203     H      0.156900000000     0.350430000000     0.167710000000     0.0356452  
H204     H      0.152620000000     0.391060000000     0.129410000000     0.0469511  
H205     H      0.225340000000     0.450290000000     0.134850000000     0.0468708  
H206     H      0.224250000000     0.488630000000     0.093240000000     0.0355538  
H207     H      0.132980000000     0.478910000000     0.083910000000     0.0354064  
H208     H      0.134140000000     0.440620000000     0.125920000000     0.0467847  
H209     H      0.207970000000     0.439230000000     0.829320000000     0.0466229  
H210     H      0.212950000000     0.398470000000     0.791500000000     0.0353816  
H211     H      0.158330000000     0.348870000000     0.857300000000     0.0357442  
H212     H      0.153640000000     0.389710000000     0.895290000000     0.0470008  
H213     H      0.133960000000     0.439070000000     0.898680000000     0.0468357  
H214     H      0.132770000000     0.477790000000     0.940190000000     0.0353476  
H215     H      0.223640000000     0.489220000000     0.928340000000     0.0355352  
H216     H      0.224750000000     0.450510000000     0.887270000000     0.0468403  
H217     H      0.207650000000     0.659680000000     0.829020000000     0.0465867  
H218     H      0.212160000000     0.700190000000     0.790740000000     0.0355088  
H219     H      0.156230000000     0.749400000000     0.855400000000     0.0357416  
H220     H      0.152000000000     0.708810000000     0.893850000000     0.0469551  
H221     H      0.224210000000     0.649040000000     0.887170000000     0.0468717  
H222     H      0.223430000000     0.610570000000     0.928580000000     0.0355186  
H223     H      0.132350000000     0.620780000000     0.939640000000     0.0354087  
H224     H      0.133200000000     0.659250000000     0.897800000000     0.0468095  
H225     H      0.292340000000     0.251430000000     0.129650000000     0.0468383  
H226     H      0.251660000000     0.255960000000     0.167780000000     0.0356441  
H227     H      0.299660000000     0.314400000000     0.230520000000     0.0354228  
H228     H      0.340370000000     0.309580000000     0.192500000000     0.0466342  
H229     H      0.351470000000     0.324310000000     0.133650000000     0.046882   
H230     H      0.390080000000     0.322390000000     0.092410000000     0.0355691  
H231     H      0.380410000000     0.230930000000     0.085610000000     0.0352935  
H232     H      0.341880000000     0.232920000000     0.127210000000     0.0467384  
H233     H      0.560290000000     0.230020000000     0.126730000000     0.0467944  
H234     H      0.521800000000     0.229010000000     0.084990000000     0.0354416  
H235     H      0.512650000000     0.320380000000     0.094170000000     0.0355855  
H236     H      0.551180000000     0.321310000000     0.135530000000     0.0468898  
H237     H      0.609980000000     0.248240000000     0.129830000000     0.0469535  
H238     H      0.650730000000     0.252210000000     0.167990000000     0.0356413  
H239     H      0.602780000000     0.309730000000     0.231990000000     0.0354947  
H240     H      0.562040000000     0.305480000000     0.193970000000     0.0466496  
H241     H      0.561140000000     0.227460000000     0.899840000000     0.046856   
H242     H      0.522690000000     0.227180000000     0.941790000000     0.0352888  
H243     H      0.512250000000     0.318060000000     0.928600000000     0.0354178  
H244     H      0.550620000000     0.318270000000     0.887120000000     0.046867   
H245     H      0.561060000000     0.300620000000     0.829270000000     0.0465301  
H246     H      0.601670000000     0.305270000000     0.791190000000     0.0354075  
H247     H      0.651460000000     0.251130000000     0.857360000000     0.0357576  
H248     H      0.610760000000     0.246760000000     0.895610000000     0.0470121  
H249     H      0.327460000000     0.324730000000     0.854230000000     0.0462185  
H250     H      0.287770000000     0.329330000000     0.815130000000     0.032706   
H251     H      0.264750000000     0.241620000000     0.832830000000     0.0324294  
H252     H      0.305980000000     0.235880000000     0.869820000000     0.0462631  
H253     H      0.324560000000     0.244930000000     0.921820000000     0.0463701  
H254     H      0.363540000000     0.241820000000     0.962410000000     0.0320647  
H255     H      0.409250000000     0.306980000000     0.907760000000     0.031746   
H256     H      0.371720000000     0.308550000000     0.865220000000     0.0461262  
O1       O      0.420170000000     0.250250000000     0.976630000000    -0.384153   
O2       O      0.481810000000     0.250450000000     0.049020000000    -0.384961   
O3       O      0.420530000000     0.251390000000     0.049230000000    -0.385215   
O4       O      0.481660000000     0.249360000000     0.976200000000    -0.384231   
O5       O      0.482600000000     0.296970000000     0.975760000000    -0.388237   
O6       O      0.420960000000     0.298980000000     0.047580000000    -0.387301   
O7       O      0.481960000000     0.298060000000     0.048440000000    -0.387306   
O8       O      0.421850000000     0.297880000000     0.974650000000    -0.386662   
O9       O      0.153880000000     0.580270000000     0.974960000000    -0.384624   
O10      O      0.154240000000     0.518950000000     0.047800000000    -0.384688   
O11      O      0.154180000000     0.580270000000     0.047780000000    -0.384709   
O12      O      0.153980000000     0.518880000000     0.974990000000    -0.384458   
O13      O      0.201580000000     0.519170000000     0.974780000000    -0.387758   
O14      O      0.201770000000     0.580120000000     0.047480000000    -0.38802    
O15      O      0.201840000000     0.519160000000     0.047500000000    -0.387323   
O16      O      0.201470000000     0.580170000000     0.974760000000    -0.387394   
O17      O      0.480790000000     0.794610000000     0.046980000000    -0.387572   
O18      O      0.419930000000     0.794990000000     0.974120000000    -0.387415   
O19      O      0.480910000000     0.794370000000     0.974260000000    -0.387424   
O20      O      0.419820000000     0.795240000000     0.046870000000    -0.38749    
O21      O      0.420140000000     0.842850000000     0.046680000000    -0.384809   
O22      O      0.481560000000     0.841970000000     0.973990000000    -0.384741   
O23      O      0.420240000000     0.842600000000     0.973860000000    -0.384839   
O24      O      0.481450000000     0.842220000000     0.046800000000    -0.384817   
O25      O      0.701650000000     0.514250000000     0.047840000000    -0.388002   
O26      O      0.701540000000     0.575810000000     0.975940000000    -0.38814    
O27      O      0.701380000000     0.515000000000     0.974920000000    -0.386409   
O28      O      0.701880000000     0.575070000000     0.048840000000    -0.386445   
O29      O      0.749520000000     0.576290000000     0.047090000000    -0.384401   
O30      O      0.749020000000     0.513510000000     0.976130000000    -0.384452   
O31      O      0.749120000000     0.574980000000     0.974470000000    -0.384403   
O32      O      0.749250000000     0.514810000000     0.048760000000    -0.384325   
O33      O      0.200440000000     0.019230000000     0.547720000000    -0.387703   
O34      O      0.200400000000     0.080210000000     0.475020000000    -0.387721   
O35      O      0.200260000000     0.019230000000     0.475010000000    -0.387643   
O36      O      0.200600000000     0.080220000000     0.547740000000    -0.387504   
O37      O      0.248200000000     0.080270000000     0.547620000000    -0.384547   
O38      O      0.247850000000     0.018940000000     0.474780000000    -0.384865   
O39      O      0.247990000000     0.080290000000     0.474800000000    -0.384647   
O40      O      0.248040000000     0.018890000000     0.547580000000    -0.384469   
O41      O      0.919710000000     0.748910000000     0.474780000000    -0.384443   
O42      O      0.982130000000     0.750050000000     0.546150000000    -0.384669   
O43      O      0.920700000000     0.749140000000     0.547420000000    -0.384391   
O44      O      0.981180000000     0.749980000000     0.473520000000    -0.38449    
O45      O      0.981130000000     0.797590000000     0.474610000000    -0.388056   
O46      O      0.919260000000     0.796730000000     0.546110000000    -0.388153   
O47      O      0.980030000000     0.797670000000     0.547510000000    -0.386423   
O48      O      0.920330000000     0.796580000000     0.473190000000    -0.38631    
O49      O      0.655690000000     0.014030000000     0.547790000000    -0.384829   
O50      O      0.655670000000     0.075840000000     0.475550000000    -0.38479    
O51      O      0.655470000000     0.014510000000     0.474980000000    -0.385052   
O52      O      0.655920000000     0.075340000000     0.548370000000    -0.385135   
O53      O      0.703510000000     0.075020000000     0.548100000000    -0.387729   
O54      O      0.703060000000     0.014520000000     0.474810000000    -0.387789   
O55      O      0.703270000000     0.075500000000     0.475370000000    -0.387564   
O56      O      0.703290000000     0.014040000000     0.547540000000    -0.387419   
O57      O      0.921180000000     0.295050000000     0.476050000000    -0.387864   
O58      O      0.981750000000     0.295570000000     0.549200000000    -0.387735   
O59      O      0.920780000000     0.295100000000     0.548760000000    -0.387481   
O60      O      0.982140000000     0.295570000000     0.476460000000    -0.387443   
O61      O      0.981900000000     0.343190000000     0.476420000000    -0.38489    
O62      O      0.920210000000     0.342710000000     0.548770000000    -0.384793   
O63      O      0.981550000000     0.343180000000     0.549240000000    -0.38475    
O64      O      0.920600000000     0.342650000000     0.475960000000    -0.384848   
O65      O      0.205890000000     0.348160000000     0.251170000000    -0.386526   
O66      O      0.222280000000     0.277790000000     0.307700000000    -0.385745   
O67      O      0.249160000000     0.305350000000     0.250860000000    -0.386357   
O68      O      0.178920000000     0.320670000000     0.308030000000    -0.38578    
O69      O      0.152820000000     0.294390000000     0.272400000000    -0.386649   
O70      O      0.223040000000     0.279040000000     0.215270000000    -0.386136   
O71      O      0.196080000000     0.251580000000     0.272090000000    -0.386571   
O72      O      0.179710000000     0.321950000000     0.215560000000    -0.385927   
O73      O      0.653410000000     0.300970000000     0.251650000000    -0.386589   
O74      O      0.723750000000     0.316450000000     0.308480000000    -0.386167   
O75      O      0.696670000000     0.343800000000     0.251690000000    -0.386312   
O76      O      0.680460000000     0.273490000000     0.308440000000    -0.385775   
O77      O      0.706570000000     0.247260000000     0.272760000000    -0.386653   
O78      O      0.722810000000     0.317530000000     0.216080000000    -0.386164   
O79      O      0.749810000000     0.290100000000     0.272870000000    -0.386342   
O80      O      0.679430000000     0.274650000000     0.215970000000    -0.385799   
O81      O      0.694420000000     0.342630000000     0.773170000000    -0.386334   
O82      O      0.680690000000     0.272280000000     0.715750000000    -0.38654    
O83      O      0.652720000000     0.298590000000     0.772530000000    -0.387108   
O84      O      0.722800000000     0.316400000000     0.716160000000    -0.385513   
O85      O      0.749350000000     0.290140000000     0.751350000000    -0.387049   
O86      O      0.679500000000     0.273400000000     0.808580000000    -0.385356   
O87      O      0.706980000000     0.246460000000     0.751670000000    -0.386123   
O88      O      0.722150000000     0.317220000000     0.808090000000    -0.384889   
O89      O      0.678760000000     0.816230000000     0.213730000000    -0.385962   
O90      O      0.748700000000     0.801810000000     0.271560000000    -0.386902   
O91      O      0.722480000000     0.773480000000     0.214680000000    -0.384601   
O92      O      0.705290000000     0.844090000000     0.270580000000    -0.386646   
O93      O      0.680040000000     0.817630000000     0.306900000000    -0.385941   
O94      O      0.694840000000     0.747660000000     0.249240000000    -0.387016   
O95      O      0.722950000000     0.774090000000     0.306130000000    -0.384313   
O96      O      0.652360000000     0.790920000000     0.250050000000    -0.386518   
O97      O      0.706400000000     0.842670000000     0.750680000000    -0.386683   
O98      O      0.722420000000     0.772430000000     0.807520000000    -0.38611    
O99      O      0.749470000000     0.799660000000     0.750650000000    -0.386659   
O100     O      0.679200000000     0.815500000000     0.807550000000    -0.385891   
O101     O      0.653060000000     0.789220000000     0.771960000000    -0.38668    
O102     O      0.723320000000     0.773340000000     0.715110000000    -0.385919   
O103     O      0.696170000000     0.746210000000     0.771980000000    -0.386548   
O104     O      0.680190000000     0.816470000000     0.715070000000    -0.385818   
O105     O      0.180080000000     0.777270000000     0.215440000000    -0.386182   
O106     O      0.196030000000     0.847530000000     0.272260000000    -0.386731   
O107     O      0.223240000000     0.820340000000     0.215380000000    -0.385765   
O108     O      0.152970000000     0.804470000000     0.272290000000    -0.386356   
O109     O      0.179150000000     0.778180000000     0.307840000000    -0.385997   
O110     O      0.249400000000     0.794080000000     0.250990000000    -0.386486   
O111     O      0.222260000000     0.821360000000     0.307860000000    -0.385967   
O112     O      0.206340000000     0.751070000000     0.250990000000    -0.386562   
O113     O      0.221220000000     0.820920000000     0.714120000000    -0.385497   
O114     O      0.204770000000     0.751030000000     0.771450000000    -0.386866   
O115     O      0.177510000000     0.778150000000     0.714810000000    -0.385237   
O116     O      0.248350000000     0.793460000000     0.770930000000    -0.386299   
O117     O      0.222620000000     0.819750000000     0.806950000000    -0.386052   
O118     O      0.152130000000     0.805860000000     0.749780000000    -0.386011   
O119     O      0.178570000000     0.777550000000     0.806730000000    -0.385288   
O120     O      0.196090000000     0.847680000000     0.750230000000    -0.386982   
O121     O      0.249810000000     0.305590000000     0.772960000000    -0.38608    
O122     O      0.179310000000     0.319660000000     0.715880000000    -0.385979   
O123     O      0.205910000000     0.347480000000     0.772600000000    -0.387171   
O124     O      0.223310000000     0.277400000000     0.716000000000    -0.385419   
O125     O      0.197100000000     0.250870000000     0.751250000000    -0.386888   
O126     O      0.180770000000     0.320720000000     0.808710000000    -0.385416   
O127     O      0.153560000000     0.293390000000     0.751900000000    -0.386219   
O128     O      0.224430000000     0.277880000000     0.807920000000    -0.38501    


