data_structure

_audit_creation_method RASPA-1.0
_audit_creation_date 2023-5-22
_audit_author_name 'Poobodin Mano'

_cell_length_a    30.8517
_cell_length_b    30.8517
_cell_length_c    61.6494
_cell_angle_alpha 90
_cell_angle_beta  90
_cell_angle_gamma 90
_cell_volume      58679.6

_symmetry_cell_setting          triclinic
_symmetry_space_group_name_Hall 'P 1'
_symmetry_space_group_name_H-M  'P 1'
_symmetry_Int_Tables_number     1

_symmetry_equiv_pos_as_xyz 'x,y,z'

loop_
_atom_site_label
_atom_site_type_symbol
_atom_site_fract_x
_atom_site_fract_y
_atom_site_fract_z
_atom_site_charge
C1       C      0.987540000000     0.987200000000     0.155910000000     0.356393   
C2       C      0.987510000000     0.987230000000     0.069700000000     0.356434   
C3       C      0.987720000000     0.073340000000     0.112820000000     0.356314   
C4       C      0.987320000000     0.901070000000     0.112820000000     0.356427   
C5       C      0.987530000000     0.487270000000     0.069780000000     0.356306   
C6       C      0.987490000000     0.487140000000     0.155980000000     0.356534   
C7       C      0.987300000000     0.401070000000     0.112870000000     0.356437   
C8       C      0.987730000000     0.573350000000     0.112920000000     0.356251   
C9       C      0.486920000000     0.987170000000     0.155940000000     0.356446   
C10      C      0.486670000000     0.987220000000     0.069730000000     0.356582   
C11      C      0.486990000000     0.073330000000     0.112860000000     0.356543   
C12      C      0.486590000000     0.901060000000     0.112840000000     0.356366   
C13      C      0.486860000000     0.487120000000     0.155990000000     0.356486   
C14      C      0.486700000000     0.487270000000     0.069780000000     0.356543   
C15      C      0.486990000000     0.573330000000     0.112930000000     0.356539   
C16      C      0.486570000000     0.401060000000     0.112870000000     0.35657    
C17      C      0.987510000000     0.987540000000     0.905680000000     0.35618    
C18      C      0.987530000000     0.987580000000     0.819470000000     0.356589   
C19      C      0.987300000000     0.073690000000     0.862570000000     0.356331   
C20      C      0.987740000000     0.901420000000     0.862550000000     0.356239   
C21      C      0.987530000000     0.487550000000     0.905760000000     0.356207   
C22      C      0.987510000000     0.487550000000     0.819550000000     0.356394   
C23      C      0.987320000000     0.573700000000     0.862630000000     0.356439   
C24      C      0.987720000000     0.401420000000     0.862630000000     0.356445   
C25      C      0.486650000000     0.987830000000     0.905710000000     0.356571   
C26      C      0.486880000000     0.987860000000     0.819500000000     0.356653   
C27      C      0.486970000000     0.901720000000     0.862590000000     0.35651    
C28      C      0.486550000000     0.073990000000     0.862600000000     0.356534   
C29      C      0.486680000000     0.487850000000     0.905760000000     0.356456   
C30      C      0.486850000000     0.487840000000     0.819550000000     0.356776   
C31      C      0.486560000000     0.573980000000     0.862630000000     0.356427   
C32      C      0.486960000000     0.401720000000     0.862640000000     0.356578   
C33      C      0.987590000000     0.987170000000     0.319470000000     0.356447   
C34      C      0.987560000000     0.987200000000     0.405680000000     0.356307   
C35      C      0.901440000000     0.986970000000     0.362550000000     0.356488   
C36      C      0.073710000000     0.987390000000     0.362570000000     0.356283   
C37      C      0.987350000000     0.486870000000     0.319550000000     0.356551   
C38      C      0.987290000000     0.486840000000     0.405760000000     0.356373   
C39      C      0.901180000000     0.486640000000     0.362620000000     0.356346   
C40      C      0.073450000000     0.487060000000     0.362650000000     0.356499   
C41      C      0.487510000000     0.987170000000     0.319500000000     0.356576   
C42      C      0.487630000000     0.987190000000     0.405710000000     0.356486   
C43      C      0.401440000000     0.986970000000     0.362610000000     0.356272   
C44      C      0.573710000000     0.987380000000     0.362560000000     0.356318   
C45      C      0.487260000000     0.486870000000     0.319550000000     0.356448   
C46      C      0.487370000000     0.486830000000     0.405760000000     0.356413   
C47      C      0.401180000000     0.486640000000     0.362660000000     0.356582   
C48      C      0.573450000000     0.487060000000     0.362620000000     0.356325   
C49      C      0.987580000000     0.987450000000     0.655900000000     0.356454   
C50      C      0.987540000000     0.987350000000     0.569700000000     0.356396   
C51      C      0.073690000000     0.987200000000     0.612810000000     0.356454   
C52      C      0.901420000000     0.987610000000     0.612830000000     0.356319   
C53      C      0.987460000000     0.487240000000     0.655990000000     0.356536   
C54      C      0.987400000000     0.487050000000     0.569780000000     0.356392   
C55      C      0.073560000000     0.486940000000     0.612880000000     0.356529   
C56      C      0.901290000000     0.487350000000     0.612910000000     0.356498   
C57      C      0.487470000000     0.987500000000     0.655940000000     0.356401   
C58      C      0.487630000000     0.987330000000     0.569730000000     0.35628    
C59      C      0.401420000000     0.987630000000     0.612820000000     0.356288   
C60      C      0.573690000000     0.987200000000     0.612880000000     0.356262   
C61      C      0.487360000000     0.487300000000     0.655990000000     0.356502   
C62      C      0.487490000000     0.487030000000     0.569780000000     0.356564   
C63      C      0.401290000000     0.487370000000     0.612870000000     0.356349   
C64      C      0.573560000000     0.486950000000     0.612930000000     0.35636    
C65      C      0.689920000000     0.524350000000     0.619020000000    -0.0658338  
C66      C      0.713270000000     0.487090000000     0.612940000000     0.0226744  
C67      C      0.690040000000     0.449730000000     0.606890000000    -0.0657258  
C68      C      0.644730000000     0.449560000000     0.607040000000     0.0235411  
C69      C      0.621540000000     0.486910000000     0.612970000000    -0.105157   
C70      C      0.644630000000     0.524340000000     0.618900000000     0.0234701  
C71      C      0.761580000000     0.487210000000     0.612940000000     0.0226451  
C72      C      0.784820000000     0.524530000000     0.606830000000    -0.0656623  
C73      C      0.830130000000     0.524710000000     0.606980000000     0.0235802  
C74      C      0.853320000000     0.487390000000     0.612950000000    -0.105291   
C75      C      0.830230000000     0.450000000000     0.618940000000     0.0235443  
C76      C      0.784940000000     0.449990000000     0.619070000000    -0.065855   
C77      C      0.189920000000     0.524340000000     0.618950000000    -0.065819   
C78      C      0.213270000000     0.487090000000     0.612860000000     0.0226587  
C79      C      0.190030000000     0.449730000000     0.606810000000    -0.0657078  
C80      C      0.144730000000     0.449560000000     0.606970000000     0.0235996  
C81      C      0.121540000000     0.486910000000     0.612900000000    -0.105243   
C82      C      0.144630000000     0.524330000000     0.618830000000     0.0235278  
C83      C      0.261580000000     0.487210000000     0.612860000000     0.022659   
C84      C      0.284820000000     0.524530000000     0.606750000000    -0.0656792  
C85      C      0.330130000000     0.524710000000     0.606910000000     0.023563   
C86      C      0.353320000000     0.487400000000     0.612890000000    -0.105203   
C87      C      0.330220000000     0.450000000000     0.618880000000     0.0234717  
C88      C      0.284930000000     0.449990000000     0.619000000000    -0.0658519  
C89      C      0.690060000000     0.024590000000     0.618970000000    -0.0657429  
C90      C      0.713400000000     0.987350000000     0.612880000000     0.0225853  
C91      C      0.690160000000     0.949990000000     0.606820000000    -0.0656602  
C92      C      0.644850000000     0.949820000000     0.606970000000     0.0235032  
C93      C      0.621670000000     0.987170000000     0.612920000000    -0.105196   
C94      C      0.644760000000     0.024580000000     0.618860000000     0.0235385  
C95      C      0.761710000000     0.987460000000     0.612870000000     0.0226078  
C96      C      0.784940000000     0.024790000000     0.606770000000    -0.0656622  
C97      C      0.830250000000     0.024960000000     0.606910000000     0.023663   
C98      C      0.853450000000     0.987640000000     0.612870000000    -0.105303   
C99      C      0.830360000000     0.950240000000     0.618850000000     0.0234953  
C100     C      0.785070000000     0.950230000000     0.618980000000    -0.0658162  
C101     C      0.284950000000     0.024810000000     0.606700000000    -0.0656577  
C102     C      0.261710000000     0.987470000000     0.612790000000     0.0226074  
C103     C      0.285060000000     0.950250000000     0.618920000000    -0.0658452  
C104     C      0.330350000000     0.950260000000     0.618800000000     0.023516   
C105     C      0.353450000000     0.987660000000     0.612830000000    -0.105291   
C106     C      0.330260000000     0.024980000000     0.606860000000     0.0236467  
C107     C      0.213400000000     0.987360000000     0.612790000000     0.0226026  
C108     C      0.190050000000     0.024600000000     0.618890000000    -0.0657546  
C109     C      0.144760000000     0.024590000000     0.618770000000     0.0235607  
C110     C      0.121670000000     0.987170000000     0.612830000000    -0.105291   
C111     C      0.144860000000     0.949830000000     0.606890000000     0.0236129  
C112     C      0.190160000000     0.950000000000     0.606730000000    -0.0657362  
C113     C      0.499690000000     0.524180000000     0.511500000000    -0.0657549  
C114     C      0.487490000000     0.486880000000     0.499860000000     0.0227217  
C115     C      0.475320000000     0.449610000000     0.511530000000    -0.0657755  
C116     C      0.475600000000     0.449580000000     0.534200000000     0.0235978  
C117     C      0.487510000000     0.486960000000     0.545770000000    -0.105273   
C118     C      0.499430000000     0.524300000000     0.534170000000     0.0235691  
C119     C      0.487450000000     0.486850000000     0.475680000000     0.0226917  
C120     C      0.475240000000     0.524130000000     0.464020000000    -0.0656944  
C121     C      0.475480000000     0.524200000000     0.441350000000     0.0235002  
C122     C      0.487390000000     0.486830000000     0.429770000000    -0.105178   
C123     C      0.499310000000     0.449470000000     0.441360000000     0.0235345  
C124     C      0.499620000000     0.449560000000     0.464030000000    -0.0657737  
C125     C      0.499880000000     0.024540000000     0.511460000000    -0.0656466  
C126     C      0.487690000000     0.987240000000     0.499810000000     0.022614   
C127     C      0.475500000000     0.949970000000     0.511470000000    -0.0657142  
C128     C      0.475760000000     0.949910000000     0.534140000000     0.0234843  
C129     C      0.487660000000     0.987290000000     0.545720000000    -0.105201   
C130     C      0.499590000000     0.024640000000     0.534130000000     0.0235743  
C131     C      0.487680000000     0.987230000000     0.475630000000     0.0226639  
C132     C      0.475480000000     0.024500000000     0.463970000000    -0.0657206  
C133     C      0.475750000000     0.024570000000     0.441300000000     0.0236492  
C134     C      0.487650000000     0.987200000000     0.429720000000    -0.105315   
C135     C      0.499570000000     0.949840000000     0.441310000000     0.023551   
C136     C      0.499860000000     0.949930000000     0.463980000000    -0.0657517  
C137     C      0.975100000000     0.524160000000     0.464010000000    -0.0657162  
C138     C      0.987310000000     0.486880000000     0.475680000000     0.0226693  
C139     C      0.999480000000     0.449580000000     0.464030000000    -0.0658369  
C140     C      0.999190000000     0.449490000000     0.441360000000     0.0235074  
C141     C      0.987280000000     0.486840000000     0.429770000000    -0.105191   
C142     C      0.975370000000     0.524220000000     0.441350000000     0.0235295  
C143     C      0.987340000000     0.486920000000     0.499860000000     0.022736   
C144     C      0.999540000000     0.524220000000     0.511490000000    -0.0658244  
C145     C      0.999290000000     0.524340000000     0.534160000000     0.0234458  
C146     C      0.987380000000     0.487000000000     0.545770000000    -0.105152   
C147     C      0.975460000000     0.449610000000     0.534200000000     0.0234957  
C148     C      0.975160000000     0.449650000000     0.511530000000    -0.0657576  
C149     C      0.689810000000     0.449670000000     0.356490000000    -0.0658716  
C150     C      0.713160000000     0.486900000000     0.362600000000     0.0226809  
C151     C      0.689930000000     0.524250000000     0.368690000000    -0.0657218  
C152     C      0.644620000000     0.524420000000     0.368540000000     0.0235403  
C153     C      0.621430000000     0.487090000000     0.362580000000    -0.10516    
C154     C      0.644520000000     0.449680000000     0.356620000000     0.0234992  
C155     C      0.761470000000     0.486790000000     0.362600000000     0.0226437  
C156     C      0.784710000000     0.449440000000     0.368680000000    -0.0656779  
C157     C      0.830020000000     0.449270000000     0.368530000000     0.0235416  
C158     C      0.853210000000     0.486610000000     0.362580000000    -0.105225   
C159     C      0.830120000000     0.524020000000     0.356630000000     0.0235066  
C160     C      0.784820000000     0.524030000000     0.356500000000    -0.0658409  
C161     C      0.189920000000     0.524250000000     0.368750000000    -0.0657223  
C162     C      0.213160000000     0.486900000000     0.362670000000     0.0226688  
C163     C      0.189810000000     0.449670000000     0.356560000000    -0.0658566  
C164     C      0.144520000000     0.449680000000     0.356670000000     0.0234972  
C165     C      0.121430000000     0.487090000000     0.362630000000    -0.105218   
C166     C      0.144620000000     0.524420000000     0.368590000000     0.0236012  
C167     C      0.261470000000     0.486790000000     0.362670000000     0.0226743  
C168     C      0.284820000000     0.524030000000     0.356570000000    -0.0658571  
C169     C      0.330110000000     0.524020000000     0.356690000000     0.0235542  
C170     C      0.353210000000     0.486610000000     0.362640000000    -0.105321   
C171     C      0.330020000000     0.449270000000     0.368590000000     0.0236184  
C172     C      0.284710000000     0.449440000000     0.368750000000    -0.0657478  
C173     C      0.975350000000     0.024520000000     0.463930000000    -0.0655854  
C174     C      0.987540000000     0.987250000000     0.475600000000     0.0225899  
C175     C      0.999730000000     0.949960000000     0.463950000000    -0.0657761  
C176     C      0.999460000000     0.949860000000     0.441280000000     0.0234694  
C177     C      0.987550000000     0.987210000000     0.429690000000    -0.105233   
C178     C      0.975620000000     0.024590000000     0.441260000000     0.0235189  
C179     C      0.987540000000     0.987270000000     0.499780000000     0.0226818  
C180     C      0.999730000000     0.024570000000     0.511420000000    -0.0657551  
C181     C      0.999450000000     0.024680000000     0.534090000000     0.0235015  
C182     C      0.987540000000     0.987330000000     0.545680000000    -0.105137   
C183     C      0.975620000000     0.949950000000     0.534110000000     0.0234765  
C184     C      0.975350000000     0.950000000000     0.511440000000    -0.0657607  
C185     C      0.785080000000     0.024350000000     0.356420000000    -0.0658638  
C186     C      0.761730000000     0.987120000000     0.362530000000     0.0226258  
C187     C      0.784970000000     0.949770000000     0.368620000000    -0.0657337  
C188     C      0.830280000000     0.949600000000     0.368470000000     0.023588   
C189     C      0.853470000000     0.986940000000     0.362510000000    -0.105374   
C190     C      0.830370000000     0.024340000000     0.356550000000     0.0236572  
C191     C      0.713420000000     0.987230000000     0.362540000000     0.0226203  
C192     C      0.690190000000     0.024580000000     0.368620000000    -0.0656628  
C193     C      0.644880000000     0.024750000000     0.368470000000     0.023607   
C194     C      0.621690000000     0.987410000000     0.362520000000    -0.105238   
C195     C      0.644780000000     0.950010000000     0.356560000000     0.0235219  
C196     C      0.690070000000     0.950000000000     0.356430000000    -0.0658838  
C197     C      0.285090000000     0.024360000000     0.356500000000    -0.0657879  
C198     C      0.261730000000     0.987130000000     0.362610000000     0.02258    
C199     C      0.284970000000     0.949790000000     0.368690000000    -0.0656508  
C200     C      0.330270000000     0.949610000000     0.368540000000     0.0235576  
C201     C      0.353470000000     0.986950000000     0.362590000000    -0.105299   
C202     C      0.330370000000     0.024350000000     0.356630000000     0.02362    
C203     C      0.213420000000     0.987240000000     0.362600000000     0.0226204  
C204     C      0.190180000000     0.024590000000     0.368670000000    -0.0656562  
C205     C      0.144870000000     0.024760000000     0.368500000000     0.0236453  
C206     C      0.121690000000     0.987430000000     0.362550000000    -0.105232   
C207     C      0.144790000000     0.950020000000     0.356600000000     0.0234847  
C208     C      0.190080000000     0.950010000000     0.356490000000    -0.0658342  
C209     C      0.450140000000     0.474220000000     0.761290000000    -0.066459   
C210     C      0.487050000000     0.487650000000     0.749780000000     0.0228116  
C211     C      0.523880000000     0.501160000000     0.761330000000    -0.0664063  
C212     C      0.523950000000     0.500880000000     0.784000000000     0.0239354  
C213     C      0.486910000000     0.487790000000     0.795560000000    -0.105593   
C214     C      0.449930000000     0.474650000000     0.783960000000     0.0239484  
C215     C      0.487130000000     0.487560000000     0.725760000000     0.022843   
C216     C      0.473700000000     0.450640000000     0.714250000000    -0.0664655  
C217     C      0.474140000000     0.450420000000     0.691580000000     0.0239615  
C218     C      0.487290000000     0.487380000000     0.679980000000    -0.105546   
C219     C      0.500370000000     0.524430000000     0.691530000000     0.0239321  
C220     C      0.500640000000     0.524380000000     0.714210000000    -0.0664701  
C221     C      0.450210000000     0.974300000000     0.761230000000    -0.0664368  
C222     C      0.487120000000     0.987740000000     0.749730000000     0.0227802  
C223     C      0.523940000000     0.001240000000     0.761290000000    -0.0663786  
C224     C      0.524000000000     0.000930000000     0.783960000000     0.0240165  
C225     C      0.486950000000     0.987840000000     0.795510000000    -0.105644   
C226     C      0.449980000000     0.974700000000     0.783900000000     0.0239298  
C227     C      0.487210000000     0.987680000000     0.725710000000     0.0227274  
C228     C      0.473790000000     0.950780000000     0.714190000000    -0.0663818  
C229     C      0.474240000000     0.950580000000     0.691520000000     0.0238864  
C230     C      0.487400000000     0.987560000000     0.679930000000    -0.105544   
C231     C      0.500470000000     0.024600000000     0.691500000000     0.0239536  
C232     C      0.500730000000     0.024520000000     0.714170000000    -0.0663483  
C233     C      0.524160000000     0.785250000000     0.868700000000    -0.0657136  
C234     C      0.486830000000     0.762010000000     0.862600000000     0.0226764  
C235     C      0.449610000000     0.785350000000     0.856470000000    -0.0658357  
C236     C      0.449620000000     0.830640000000     0.856580000000     0.0235065  
C237     C      0.487010000000     0.853740000000     0.862560000000    -0.10523    
C238     C      0.524330000000     0.830550000000     0.868540000000     0.023573   
C239     C      0.486710000000     0.713690000000     0.862610000000     0.022639   
C240     C      0.523960000000     0.690340000000     0.856530000000    -0.0658116  
C241     C      0.523950000000     0.645050000000     0.856660000000     0.0234757  
C242     C      0.486530000000     0.621960000000     0.862600000000    -0.105165   
C243     C      0.449180000000     0.645160000000     0.868530000000     0.0235212  
C244     C      0.449350000000     0.690460000000     0.868670000000    -0.0656562  
C245     C      0.449330000000     0.190450000000     0.868670000000    -0.0657184  
C246     C      0.486690000000     0.213690000000     0.862620000000     0.022687   
C247     C      0.523940000000     0.190350000000     0.856520000000    -0.0659024  
C248     C      0.523930000000     0.145060000000     0.856640000000     0.0235804  
C249     C      0.486510000000     0.121960000000     0.862570000000    -0.105311   
C250     C      0.449160000000     0.145150000000     0.868510000000     0.0236064  
C251     C      0.486810000000     0.262010000000     0.862620000000     0.0226783  
C252     C      0.449590000000     0.285360000000     0.856500000000    -0.0658678  
C253     C      0.449600000000     0.330650000000     0.856630000000     0.0235539  
C254     C      0.486990000000     0.353740000000     0.862610000000    -0.105267   
C255     C      0.524310000000     0.330550000000     0.868580000000     0.0235964  
C256     C      0.524140000000     0.285240000000     0.868730000000    -0.0657187  
C257     C      0.950620000000     0.474010000000     0.761310000000    -0.0663643  
C258     C      0.987490000000     0.487450000000     0.749770000000     0.0227053  
C259     C      0.024360000000     0.500940000000     0.761300000000    -0.0662959  
C260     C      0.024510000000     0.500630000000     0.783970000000     0.0238686  
C261     C      0.987500000000     0.487530000000     0.795550000000    -0.105398   
C262     C      0.950490000000     0.474400000000     0.783990000000     0.0238278  
C263     C      0.987490000000     0.487400000000     0.725760000000     0.0227426  
C264     C      0.974010000000     0.450500000000     0.714250000000    -0.0664352  
C265     C      0.974360000000     0.450310000000     0.691580000000     0.023917   
C266     C      0.987470000000     0.487300000000     0.679980000000    -0.105634   
C267     C      0.000590000000     0.524330000000     0.691530000000     0.0240171  
C268     C      0.000950000000     0.524240000000     0.714200000000    -0.066322   
C269     C      0.001040000000     0.024380000000     0.714140000000    -0.066261   
C270     C      0.987570000000     0.987520000000     0.725680000000     0.0226966  
C271     C      0.974100000000     0.950640000000     0.714160000000    -0.0664189  
C272     C      0.974460000000     0.950480000000     0.691480000000     0.023861   
C273     C      0.987580000000     0.987470000000     0.679900000000    -0.105493   
C274     C      0.000690000000     0.024500000000     0.691470000000     0.0239464  
C275     C      0.987560000000     0.987550000000     0.749690000000     0.0226283  
C276     C      0.024420000000     0.001030000000     0.761230000000    -0.0662523  
C277     C      0.024550000000     0.000690000000     0.783900000000     0.0240043  
C278     C      0.987540000000     0.987570000000     0.795470000000    -0.105551   
C279     C      0.950530000000     0.974450000000     0.783900000000     0.0238628  
C280     C      0.950680000000     0.974080000000     0.761230000000    -0.0663694  
C281     C      0.024940000000     0.784960000000     0.868650000000    -0.0655992  
C282     C      0.987590000000     0.761710000000     0.862580000000     0.0225505  
C283     C      0.950360000000     0.785060000000     0.856460000000    -0.0658161  
C284     C      0.950370000000     0.830350000000     0.856570000000     0.0235156  
C285     C      0.987770000000     0.853450000000     0.862520000000    -0.105264   
C286     C      0.025110000000     0.830270000000     0.868490000000     0.0235826  
C287     C      0.987480000000     0.713400000000     0.862590000000     0.0226684  
C288     C      0.024710000000     0.690050000000     0.856500000000    -0.0658234  
C289     C      0.024700000000     0.644760000000     0.856630000000     0.0236251  
C290     C      0.987290000000     0.621670000000     0.862590000000    -0.105374   
C291     C      0.949960000000     0.644870000000     0.868540000000     0.0236161  
C292     C      0.950140000000     0.690180000000     0.868680000000    -0.0657437  
C293     C      0.024910000000     0.284950000000     0.868690000000    -0.0657054  
C294     C      0.987560000000     0.261720000000     0.862610000000     0.022646   
C295     C      0.950330000000     0.285070000000     0.856500000000    -0.0658963  
C296     C      0.950340000000     0.330360000000     0.856640000000     0.0235751  
C297     C      0.987750000000     0.353450000000     0.862600000000    -0.105394   
C298     C      0.025080000000     0.330250000000     0.868550000000     0.0237214  
C299     C      0.987450000000     0.213400000000     0.862600000000     0.0226031  
C300     C      0.024680000000     0.190060000000     0.856480000000    -0.0657946  
C301     C      0.024670000000     0.144770000000     0.856590000000     0.0235817  
C302     C      0.987270000000     0.121670000000     0.862540000000    -0.105225   
C303     C      0.949930000000     0.144850000000     0.868500000000     0.0235242  
C304     C      0.950110000000     0.190160000000     0.868670000000    -0.065675   
C305     C      0.450120000000     0.500460000000     0.214260000000    -0.0664505  
C306     C      0.487020000000     0.486970000000     0.225760000000     0.0228115  
C307     C      0.523860000000     0.473520000000     0.214200000000    -0.0663869  
C308     C      0.523950000000     0.473920000000     0.191530000000     0.0238602  
C309     C      0.486910000000     0.487070000000     0.179980000000    -0.105482   
C310     C      0.449930000000     0.500160000000     0.191590000000     0.0238989  
C311     C      0.487080000000     0.486940000000     0.249780000000     0.0228253  
C312     C      0.473640000000     0.523800000000     0.261330000000    -0.0664397  
C313     C      0.474050000000     0.523910000000     0.284000000000     0.0239088  
C314     C      0.487200000000     0.486890000000     0.295560000000    -0.105485   
C315     C      0.500290000000     0.449890000000     0.283960000000     0.0238799  
C316     C      0.500580000000     0.450060000000     0.261290000000    -0.0664288  
C317     C      0.523910000000     0.499890000000     0.964040000000    -0.0657513  
C318     C      0.486620000000     0.487650000000     0.975680000000     0.0227086  
C319     C      0.449340000000     0.475520000000     0.964010000000    -0.0657678  
C320     C      0.449270000000     0.475870000000     0.941340000000     0.0235793  
C321     C      0.486640000000     0.487810000000     0.929770000000    -0.10524    
C322     C      0.524000000000     0.499690000000     0.941370000000     0.023536   
C323     C      0.486620000000     0.487530000000     0.999860000000     0.0227198  
C324     C      0.523920000000     0.475280000000     0.011490000000    -0.0657762  
C325     C      0.524020000000     0.475460000000     0.034160000000     0.0235217  
C326     C      0.486660000000     0.487340000000     0.045770000000    -0.105206   
C327     C      0.449280000000     0.499290000000     0.034200000000     0.0235161  
C328     C      0.449350000000     0.499670000000     0.011530000000    -0.0657495  
C329     C      0.450250000000     0.000610000000     0.214210000000    -0.0662609  
C330     C      0.487160000000     0.987140000000     0.225710000000     0.0226776  
C331     C      0.523980000000     0.973680000000     0.214140000000    -0.0663043  
C332     C      0.524040000000     0.974030000000     0.191470000000     0.0238529  
C333     C      0.486990000000     0.987150000000     0.179930000000    -0.105523   
C334     C      0.450020000000     0.000270000000     0.191540000000     0.023904   
C335     C      0.487250000000     0.987150000000     0.249730000000     0.0227611  
C336     C      0.473830000000     0.024020000000     0.261270000000    -0.066338   
C337     C      0.474270000000     0.024170000000     0.283940000000     0.0239375  
C338     C      0.487430000000     0.987160000000     0.295500000000    -0.105493   
C339     C      0.500500000000     0.950150000000     0.283920000000     0.023894   
C340     C      0.500770000000     0.950280000000     0.261250000000    -0.0664098  
C341     C      0.449290000000     0.999590000000     0.011490000000    -0.0658096  
C342     C      0.486580000000     0.987470000000     0.999810000000     0.0227135  
C343     C      0.523870000000     0.975220000000     0.011440000000    -0.0657734  
C344     C      0.523970000000     0.975400000000     0.034110000000     0.0235587  
C345     C      0.486620000000     0.987270000000     0.045720000000    -0.105257   
C346     C      0.449240000000     0.999220000000     0.034160000000     0.0235023  
C347     C      0.486570000000     0.987600000000     0.975630000000     0.0226585  
C348     C      0.449290000000     0.975470000000     0.963950000000    -0.0656938  
C349     C      0.449230000000     0.975840000000     0.941280000000     0.0235215  
C350     C      0.486610000000     0.987790000000     0.929720000000    -0.105234   
C351     C      0.523960000000     0.999670000000     0.941320000000     0.0234714  
C352     C      0.523860000000     0.999850000000     0.963990000000    -0.0657781  
C353     C      0.524180000000     0.689790000000     0.106810000000    -0.0657215  
C354     C      0.486850000000     0.713040000000     0.112910000000     0.0226887  
C355     C      0.449630000000     0.689700000000     0.119040000000    -0.0658988  
C356     C      0.449640000000     0.644410000000     0.118930000000     0.0235855  
C357     C      0.487030000000     0.621300000000     0.112960000000    -0.105318   
C358     C      0.524350000000     0.644490000000     0.106970000000     0.0236079  
C359     C      0.486740000000     0.761350000000     0.112890000000     0.0226456  
C360     C      0.523990000000     0.784710000000     0.118960000000    -0.0658428  
C361     C      0.523980000000     0.830000000000     0.118820000000     0.0235108  
C362     C      0.486560000000     0.853080000000     0.112880000000    -0.105193   
C363     C      0.449210000000     0.829890000000     0.106960000000     0.0235628  
C364     C      0.449380000000     0.784580000000     0.106820000000    -0.0656851  
C365     C      0.449620000000     0.189690000000     0.118990000000    -0.0659023  
C366     C      0.486830000000     0.213040000000     0.112860000000     0.0227009  
C367     C      0.524160000000     0.189800000000     0.106750000000    -0.0657486  
C368     C      0.524340000000     0.144500000000     0.106910000000     0.0236234  
C369     C      0.487020000000     0.121300000000     0.112890000000    -0.105309   
C370     C      0.449630000000     0.144400000000     0.118870000000     0.0235821  
C371     C      0.486720000000     0.261350000000     0.112860000000     0.0226651  
C372     C      0.449360000000     0.284590000000     0.106800000000    -0.0657214  
C373     C      0.449190000000     0.329890000000     0.106960000000     0.0236307  
C374     C      0.486540000000     0.353080000000     0.112890000000    -0.105286   
C375     C      0.523960000000     0.329990000000     0.118820000000     0.0235607  
C376     C      0.523970000000     0.284700000000     0.118940000000    -0.0658706  
C377     C      0.973930000000     0.523810000000     0.261310000000    -0.0664151  
C378     C      0.987410000000     0.486960000000     0.249770000000     0.0227326  
C379     C      0.000860000000     0.450070000000     0.261300000000    -0.0662834  
C380     C      0.000490000000     0.449900000000     0.283970000000     0.0238873  
C381     C      0.987360000000     0.486900000000     0.295550000000    -0.10547    
C382     C      0.974260000000     0.523920000000     0.283990000000     0.0238636  
C383     C      0.987430000000     0.486990000000     0.225760000000     0.0226939  
C384     C      0.950570000000     0.500490000000     0.214220000000    -0.0663353  
C385     C      0.950450000000     0.500190000000     0.191550000000     0.0238423  
C386     C      0.987470000000     0.487100000000     0.179980000000    -0.105416   
C387     C      0.024470000000     0.473950000000     0.191560000000     0.0238808  
C388     C      0.024310000000     0.473550000000     0.214230000000    -0.0662937  
C389     C      0.950260000000     0.499590000000     0.011520000000    -0.0656492  
C390     C      0.987550000000     0.487420000000     0.999860000000     0.0225731  
C391     C      0.024830000000     0.475200000000     0.011510000000    -0.0655887  
C392     C      0.024910000000     0.475430000000     0.034180000000     0.023484   
C393     C      0.987540000000     0.487320000000     0.045760000000    -0.105064   
C394     C      0.950180000000     0.499270000000     0.034190000000     0.0234427  
C395     C      0.987540000000     0.487460000000     0.975680000000     0.0226271  
C396     C      0.950260000000     0.475300000000     0.964020000000    -0.0657039  
C397     C      0.950170000000     0.475600000000     0.941350000000     0.0234871  
C398     C      0.987540000000     0.487530000000     0.929770000000    -0.105223   
C399     C      0.024900000000     0.499420000000     0.941350000000     0.0236054  
C400     C      0.024830000000     0.499660000000     0.964020000000    -0.0656551  
C401     C      0.974110000000     0.024040000000     0.261230000000    -0.0662735  
C402     C      0.987580000000     0.987170000000     0.249690000000     0.0225991  
C403     C      0.001060000000     0.950300000000     0.261230000000    -0.0662656  
C404     C      0.000710000000     0.950160000000     0.283900000000     0.0238909  
C405     C      0.987590000000     0.987170000000     0.295470000000    -0.105479   
C406     C      0.974470000000     0.024180000000     0.283900000000     0.0238888  
C407     C      0.987570000000     0.987170000000     0.225680000000     0.0226997  
C408     C      0.950690000000     0.000640000000     0.214150000000    -0.0663803  
C409     C      0.950540000000     0.000290000000     0.191480000000     0.023995   
C410     C      0.987550000000     0.987190000000     0.179900000000    -0.105655   
C411     C      0.024560000000     0.974070000000     0.191470000000     0.0239978  
C412     C      0.024430000000     0.973710000000     0.214140000000    -0.0663231  
C413     C      0.024780000000     0.999630000000     0.963950000000    -0.0657306  
C414     C      0.987500000000     0.987410000000     0.975600000000     0.0226065  
C415     C      0.950210000000     0.975240000000     0.963930000000    -0.0656974  
C416     C      0.950140000000     0.975560000000     0.941260000000     0.0235186  
C417     C      0.987500000000     0.987500000000     0.929690000000    -0.105216   
C418     C      0.024860000000     0.999400000000     0.941280000000     0.0235105  
C419     C      0.987490000000     0.987360000000     0.999780000000     0.0226218  
C420     C      0.024780000000     0.975150000000     0.011430000000    -0.0656234  
C421     C      0.024860000000     0.975370000000     0.034100000000     0.0235847  
C422     C      0.987500000000     0.987260000000     0.045690000000    -0.105239   
C423     C      0.950130000000     0.999190000000     0.034110000000     0.0234542  
C424     C      0.950210000000     0.999510000000     0.011440000000    -0.0657752  
C425     C      0.024710000000     0.784720000000     0.118970000000    -0.0658513  
C426     C      0.987480000000     0.761370000000     0.112870000000     0.0226529  
C427     C      0.950130000000     0.784590000000     0.106780000000    -0.0657459  
C428     C      0.949960000000     0.829900000000     0.106910000000     0.0236103  
C429     C      0.987290000000     0.853100000000     0.112860000000    -0.105376   
C430     C      0.024700000000     0.830020000000     0.118820000000     0.0236325  
C431     C      0.987590000000     0.713050000000     0.112890000000     0.022598   
C432     C      0.024930000000     0.689810000000     0.106820000000    -0.0656164  
C433     C      0.025110000000     0.644500000000     0.106990000000     0.0235962  
C434     C      0.987770000000     0.621320000000     0.112950000000    -0.105284   
C435     C      0.950370000000     0.644420000000     0.118900000000     0.0235409  
C436     C      0.950360000000     0.689710000000     0.119010000000    -0.0658502  
C437     C      0.950330000000     0.189700000000     0.118940000000    -0.0658354  
C438     C      0.987560000000     0.213050000000     0.112830000000     0.0225891  
C439     C      0.024910000000     0.189820000000     0.106750000000    -0.0656261  
C440     C      0.025080000000     0.144510000000     0.106900000000     0.0235956  
C441     C      0.987750000000     0.121320000000     0.112860000000    -0.105211   
C442     C      0.950340000000     0.144410000000     0.118810000000     0.023489   
C443     C      0.987450000000     0.261370000000     0.112840000000     0.022655   
C444     C      0.950100000000     0.284610000000     0.106760000000    -0.0657892  
C445     C      0.949930000000     0.329910000000     0.106930000000     0.023667   
C446     C      0.987260000000     0.353100000000     0.112890000000    -0.105399   
C447     C      0.024670000000     0.330000000000     0.118840000000     0.0236484  
C448     C      0.024680000000     0.284710000000     0.118960000000    -0.0658463  
Cu1      Cu     0.027670000000     0.987010000000     0.112800000000     0.839565   
Cu2      Cu     0.947370000000     0.987410000000     0.112810000000     0.839413   
Cu3      Cu     0.027660000000     0.487000000000     0.112890000000     0.839637   
Cu4      Cu     0.947360000000     0.487420000000     0.112880000000     0.839459   
Cu5      Cu     0.526940000000     0.986990000000     0.112810000000     0.839727   
Cu6      Cu     0.446640000000     0.987400000000     0.112860000000     0.839468   
Cu7      Cu     0.526930000000     0.486980000000     0.112870000000     0.839586   
Cu8      Cu     0.446630000000     0.487400000000     0.112910000000     0.839765   
Cu9      Cu     0.027670000000     0.987770000000     0.862570000000     0.839517   
Cu10     Cu     0.947370000000     0.987350000000     0.862570000000     0.839605   
Cu11     Cu     0.027670000000     0.487760000000     0.862650000000     0.839799   
Cu12     Cu     0.947370000000     0.487360000000     0.862650000000     0.839475   
Cu13     Cu     0.446610000000     0.987640000000     0.862580000000     0.839609   
Cu14     Cu     0.526910000000     0.988060000000     0.862630000000     0.839737   
Cu15     Cu     0.526910000000     0.488050000000     0.862670000000     0.839799   
Cu16     Cu     0.446610000000     0.487650000000     0.862630000000     0.839561   
Cu17     Cu     0.987790000000     0.947030000000     0.362570000000     0.839412   
Cu18     Cu     0.987370000000     0.027330000000     0.362560000000     0.839747   
Cu19     Cu     0.987520000000     0.446700000000     0.362650000000     0.839475   
Cu20     Cu     0.987110000000     0.527000000000     0.362650000000     0.839789   
Cu21     Cu     0.487780000000     0.947030000000     0.362600000000     0.839506   
Cu22     Cu     0.487370000000     0.027330000000     0.362600000000     0.839621   
Cu23     Cu     0.487520000000     0.446700000000     0.362650000000     0.839521   
Cu24     Cu     0.487110000000     0.527000000000     0.362660000000     0.83976    
Cu25     Cu     0.987350000000     0.947250000000     0.612820000000     0.839586   
Cu26     Cu     0.987760000000     0.027550000000     0.612790000000     0.839743   
Cu27     Cu     0.987220000000     0.447000000000     0.612910000000     0.839724   
Cu28     Cu     0.987630000000     0.527290000000     0.612860000000     0.839627   
Cu29     Cu     0.487760000000     0.027560000000     0.612820000000     0.839483   
Cu30     Cu     0.487350000000     0.947270000000     0.612860000000     0.839614   
Cu31     Cu     0.487630000000     0.527310000000     0.612860000000     0.839534   
Cu32     Cu     0.487220000000     0.447010000000     0.612920000000     0.839746   
H1       H      0.706780000000     0.420670000000     0.601730000000     0.0465047  
H2       H      0.627890000000     0.420300000000     0.602220000000     0.0350945  
H3       H      0.627730000000     0.553560000000     0.623730000000     0.0347987  
H4       H      0.706570000000     0.553470000000     0.624180000000     0.0463754  
H5       H      0.768060000000     0.553570000000     0.601630000000     0.0464626  
H6       H      0.846960000000     0.553940000000     0.602110000000     0.0350789  
H7       H      0.847130000000     0.420800000000     0.623810000000     0.0347736  
H8       H      0.768290000000     0.420900000000     0.624270000000     0.0463835  
H9       H      0.206780000000     0.420670000000     0.601640000000     0.0464876  
H10      H      0.127890000000     0.420290000000     0.602150000000     0.0350856  
H11      H      0.127730000000     0.553550000000     0.623670000000     0.0347958  
H12      H      0.206570000000     0.553470000000     0.624110000000     0.0463638  
H13      H      0.268070000000     0.553570000000     0.601550000000     0.0464783  
H14      H      0.346960000000     0.553950000000     0.602050000000     0.0350899  
H15      H      0.347120000000     0.420810000000     0.623750000000     0.0348084  
H16      H      0.268280000000     0.420900000000     0.624190000000     0.0463972  
H17      H      0.706910000000     0.920940000000     0.601640000000     0.0464732  
H18      H      0.628010000000     0.920560000000     0.602140000000     0.0351012  
H19      H      0.627860000000     0.053800000000     0.623700000000     0.0347949  
H20      H      0.706710000000     0.053710000000     0.624140000000     0.0463578  
H21      H      0.768190000000     0.053830000000     0.601580000000     0.0464928  
H22      H      0.847080000000     0.054210000000     0.602050000000     0.0350695  
H23      H      0.847270000000     0.921040000000     0.623700000000     0.0347955  
H24      H      0.768420000000     0.921130000000     0.624180000000     0.0463578  
H25      H      0.268410000000     0.921150000000     0.624110000000     0.0463768  
H26      H      0.347250000000     0.921060000000     0.623670000000     0.0347949  
H27      H      0.347100000000     0.054220000000     0.602010000000     0.0350883  
H28      H      0.268200000000     0.053840000000     0.601500000000     0.0465015  
H29      H      0.206700000000     0.053720000000     0.624060000000     0.0463664  
H30      H      0.127860000000     0.053800000000     0.623610000000     0.0347978  
H31      H      0.128020000000     0.920570000000     0.602060000000     0.0350839  
H32      H      0.206910000000     0.920950000000     0.601560000000     0.0465043  
H33      H      0.464950000000     0.420520000000     0.503190000000     0.0464936  
H34      H      0.465910000000     0.420360000000     0.542660000000     0.0350652  
H35      H      0.509120000000     0.553550000000     0.542590000000     0.0350816  
H36      H      0.510050000000     0.553240000000     0.503130000000     0.0464852  
H37      H      0.464890000000     0.553210000000     0.472380000000     0.0464669  
H38      H      0.465780000000     0.553420000000     0.432910000000     0.035103   
H39      H      0.508990000000     0.420240000000     0.432910000000     0.0350911  
H40      H      0.509980000000     0.420490000000     0.472380000000     0.0465072  
H41      H      0.465140000000     0.920890000000     0.503120000000     0.0464773  
H42      H      0.466060000000     0.920700000000     0.542590000000     0.0350963  
H43      H      0.509280000000     0.053880000000     0.542560000000     0.0351011  
H44      H      0.510240000000     0.053600000000     0.503090000000     0.0464734  
H45      H      0.465130000000     0.053580000000     0.472320000000     0.0464989  
H46      H      0.466050000000     0.053800000000     0.432860000000     0.0350689  
H47      H      0.509260000000     0.920610000000     0.432870000000     0.035076   
H48      H      0.510220000000     0.920860000000     0.472340000000     0.0464827  
H49      H      0.009840000000     0.420520000000     0.472390000000     0.046575   
H50      H      0.008880000000     0.420250000000     0.432920000000     0.0351471  
H51      H      0.965670000000     0.553440000000     0.432900000000     0.0350866  
H52      H      0.964750000000     0.553240000000     0.472370000000     0.0464571  
H53      H      0.009890000000     0.553280000000     0.503120000000     0.046562   
H54      H      0.008990000000     0.553580000000     0.542590000000     0.0351692  
H55      H      0.965780000000     0.420400000000     0.542660000000     0.0350933  
H56      H      0.964800000000     0.420560000000     0.503190000000     0.0464806  
H57      H      0.706680000000     0.553290000000     0.373870000000     0.0465047  
H58      H      0.627780000000     0.553670000000     0.373380000000     0.035094   
H59      H      0.627610000000     0.420480000000     0.351760000000     0.0348004  
H60      H      0.706460000000     0.420570000000     0.351310000000     0.0463954  
H61      H      0.767960000000     0.420390000000     0.373860000000     0.0464789  
H62      H      0.846850000000     0.420020000000     0.373370000000     0.0350895  
H63      H      0.847020000000     0.553230000000     0.351780000000     0.0347885  
H64      H      0.768180000000     0.553140000000     0.351320000000     0.0463782  
H65      H      0.206460000000     0.420570000000     0.351380000000     0.0463938  
H66      H      0.127620000000     0.420480000000     0.351820000000     0.034804   
H67      H      0.127780000000     0.553670000000     0.373440000000     0.0350846  
H68      H      0.206670000000     0.553290000000     0.373940000000     0.0464994  
H69      H      0.268170000000     0.553140000000     0.351390000000     0.046379   
H70      H      0.347010000000     0.553230000000     0.351840000000     0.0347782  
H71      H      0.346860000000     0.420020000000     0.373430000000     0.0350789  
H72      H      0.267960000000     0.420400000000     0.373930000000     0.0465145  
H73      H      0.010090000000     0.920890000000     0.472310000000     0.0465418  
H74      H      0.009150000000     0.920620000000     0.432840000000     0.0351473  
H75      H      0.965930000000     0.053810000000     0.432820000000     0.0350868  
H76      H      0.964980000000     0.053610000000     0.472280000000     0.0464289  
H77      H      0.010080000000     0.053640000000     0.503060000000     0.0465607  
H78      H      0.009140000000     0.053920000000     0.542520000000     0.0351562  
H79      H      0.965940000000     0.920730000000     0.542560000000     0.0350862  
H80      H      0.965000000000     0.920920000000     0.503090000000     0.0464804  
H81      H      0.768220000000     0.920730000000     0.373800000000     0.0465006  
H82      H      0.847110000000     0.920350000000     0.373310000000     0.0350703  
H83      H      0.847280000000     0.053550000000     0.351700000000     0.0347664  
H84      H      0.768440000000     0.053450000000     0.351240000000     0.0464118  
H85      H      0.706940000000     0.053620000000     0.373800000000     0.0465032  
H86      H      0.628050000000     0.054000000000     0.373310000000     0.035095   
H87      H      0.627870000000     0.920800000000     0.351720000000     0.034789   
H88      H      0.706710000000     0.920890000000     0.351260000000     0.0463952  
H89      H      0.268210000000     0.920740000000     0.373880000000     0.0464563  
H90      H      0.347110000000     0.920360000000     0.373390000000     0.0350835  
H91      H      0.347280000000     0.053560000000     0.351770000000     0.0347757  
H92      H      0.268440000000     0.053470000000     0.351320000000     0.0463745  
H93      H      0.206930000000     0.053630000000     0.373860000000     0.046496   
H94      H      0.128030000000     0.054010000000     0.373340000000     0.0350936  
H95      H      0.127890000000     0.920810000000     0.351750000000     0.0348043  
H96      H      0.206730000000     0.920900000000     0.351310000000     0.0463731  
H97      H      0.552830000000     0.511410000000     0.752800000000     0.0473698  
H98      H      0.552890000000     0.511320000000     0.792460000000     0.0346182  
H99      H      0.420940000000     0.464250000000     0.792400000000     0.0346128  
H100     H      0.421250000000     0.463910000000     0.752740000000     0.0474033  
H101     H      0.463390000000     0.421760000000     0.722810000000     0.0474053  
H102     H      0.463740000000     0.421420000000     0.683150000000     0.034605   
H103     H      0.510820000000     0.553370000000     0.683060000000     0.0346245  
H104     H      0.510900000000     0.553330000000     0.722720000000     0.0474087  
H105     H      0.552890000000     0.011500000000     0.752770000000     0.0473942  
H106     H      0.552930000000     0.011370000000     0.792430000000     0.0346243  
H107     H      0.420990000000     0.964290000000     0.792340000000     0.0346114  
H108     H      0.421320000000     0.964000000000     0.752670000000     0.0473801  
H109     H      0.463470000000     0.921880000000     0.722740000000     0.0473642  
H110     H      0.463850000000     0.921590000000     0.683070000000     0.0346266  
H111     H      0.510920000000     0.053540000000     0.683040000000     0.0346348  
H112     H      0.510980000000     0.053460000000     0.722700000000     0.0473819  
H113     H      0.420510000000     0.768700000000     0.851270000000     0.0463665  
H114     H      0.420420000000     0.847540000000     0.851710000000     0.0347862  
H115     H      0.553560000000     0.847400000000     0.873400000000     0.0350805  
H116     H      0.553190000000     0.768500000000     0.873910000000     0.0464868  
H117     H      0.553080000000     0.706990000000     0.851360000000     0.0463626  
H118     H      0.553170000000     0.628140000000     0.851830000000     0.0348005  
H119     H      0.419920000000     0.628320000000     0.873350000000     0.0351071  
H120     H      0.420290000000     0.707220000000     0.873840000000     0.0464652  
H121     H      0.553060000000     0.207000000000     0.851370000000     0.0464059  
H122     H      0.553150000000     0.128160000000     0.851800000000     0.0347836  
H123     H      0.419900000000     0.128310000000     0.873330000000     0.0350767  
H124     H      0.420270000000     0.207200000000     0.873840000000     0.0464906  
H125     H      0.420490000000     0.268720000000     0.851300000000     0.0463845  
H126     H      0.420400000000     0.347560000000     0.851760000000     0.0347782  
H127     H      0.553550000000     0.347380000000     0.873440000000     0.035079   
H128     H      0.553170000000     0.268480000000     0.873930000000     0.0464905  
H129     H      0.053280000000     0.511210000000     0.752760000000     0.0473683  
H130     H      0.053470000000     0.511060000000     0.792420000000     0.0346419  
H131     H      0.921520000000     0.463990000000     0.792440000000     0.0346423  
H132     H      0.921700000000     0.463710000000     0.752780000000     0.047374   
H133     H      0.963730000000     0.421600000000     0.722800000000     0.0473908  
H134     H      0.963940000000     0.421330000000     0.683140000000     0.0346134  
H135     H      0.011010000000     0.553280000000     0.683060000000     0.0346188  
H136     H      0.011240000000     0.553180000000     0.722730000000     0.0473645  
H137     H      0.963820000000     0.921730000000     0.722700000000     0.0473852  
H138     H      0.964040000000     0.921500000000     0.683040000000     0.0346234  
H139     H      0.011110000000     0.053450000000     0.683010000000     0.0346467  
H140     H      0.011320000000     0.053310000000     0.722670000000     0.0473798  
H141     H      0.053340000000     0.011300000000     0.752690000000     0.0473803  
H142     H      0.053510000000     0.011110000000     0.792350000000     0.0346357  
H143     H      0.921570000000     0.964030000000     0.792350000000     0.0346259  
H144     H      0.921770000000     0.963790000000     0.752690000000     0.0473684  
H145     H      0.921250000000     0.768400000000     0.851290000000     0.046364   
H146     H      0.921160000000     0.847250000000     0.851720000000     0.0347916  
H147     H      0.054360000000     0.847110000000     0.873330000000     0.0350936  
H148     H      0.053980000000     0.768210000000     0.873840000000     0.0464768  
H149     H      0.053820000000     0.706690000000     0.851310000000     0.0463789  
H150     H      0.053910000000     0.627850000000     0.851780000000     0.0347678  
H151     H      0.920710000000     0.628040000000     0.873390000000     0.0350665  
H152     H      0.921090000000     0.706930000000     0.873860000000     0.0464907  
H153     H      0.921220000000     0.268430000000     0.851320000000     0.0463936  
H154     H      0.921130000000     0.347270000000     0.851790000000     0.0347694  
H155     H      0.054330000000     0.347090000000     0.873400000000     0.0350609  
H156     H      0.053950000000     0.268190000000     0.873870000000     0.0465063  
H157     H      0.053790000000     0.206710000000     0.851310000000     0.0463866  
H158     H      0.053880000000     0.127870000000     0.851740000000     0.0347997  
H159     H      0.920680000000     0.128010000000     0.873340000000     0.0350969  
H160     H      0.921060000000     0.206900000000     0.873860000000     0.046476   
H161     H      0.552800000000     0.463220000000     0.222720000000     0.0473709  
H162     H      0.552890000000     0.463520000000     0.183060000000     0.0346402  
H163     H      0.420950000000     0.510600000000     0.183160000000     0.0346193  
H164     H      0.421220000000     0.510730000000     0.222810000000     0.047406   
H165     H      0.463340000000     0.552730000000     0.252810000000     0.047398   
H166     H      0.463660000000     0.552870000000     0.292470000000     0.0346302  
H167     H      0.510730000000     0.420920000000     0.292400000000     0.0346272  
H168     H      0.510840000000     0.421150000000     0.252740000000     0.047392   
H169     H      0.420260000000     0.465130000000     0.972350000000     0.0464913  
H170     H      0.420040000000     0.466200000000     0.932880000000     0.0350708  
H171     H      0.553230000000     0.509410000000     0.932940000000     0.0350856  
H172     H      0.552980000000     0.510210000000     0.972410000000     0.0464891  
H173     H      0.552980000000     0.464960000000     0.003120000000     0.0465113  
H174     H      0.553250000000     0.465730000000     0.042590000000     0.0350973  
H175     H      0.420070000000     0.508960000000     0.042660000000     0.035087   
H176     H      0.420270000000     0.510060000000     0.003190000000     0.0464908  
H177     H      0.552940000000     0.963390000000     0.222660000000     0.0473187  
H178     H      0.552980000000     0.963620000000     0.183000000000     0.0346311  
H179     H      0.421030000000     0.010690000000     0.183120000000     0.0346435  
H180     H      0.421360000000     0.010900000000     0.222780000000     0.0473534  
H181     H      0.463510000000     0.052940000000     0.252740000000     0.0473734  
H182     H      0.463880000000     0.053140000000     0.292400000000     0.0346267  
H183     H      0.510950000000     0.921190000000     0.292360000000     0.0346226  
H184     H      0.511020000000     0.921360000000     0.252700000000     0.0473752  
H185     H      0.552940000000     0.964900000000     0.003070000000     0.0464864  
H186     H      0.553210000000     0.965680000000     0.042540000000     0.0350761  
H187     H      0.420020000000     0.008880000000     0.042620000000     0.0351506  
H188     H      0.420210000000     0.009990000000     0.003150000000     0.0465536  
H189     H      0.420210000000     0.965080000000     0.972300000000     0.046447   
H190     H      0.420010000000     0.966170000000     0.932830000000     0.0350748  
H191     H      0.553190000000     0.009400000000     0.932900000000     0.0351529  
H192     H      0.552930000000     0.010180000000     0.972360000000     0.0465448  
H193     H      0.420540000000     0.706350000000     0.124240000000     0.0463958  
H194     H      0.420440000000     0.627500000000     0.123810000000     0.0347703  
H195     H      0.553590000000     0.627640000000     0.102120000000     0.0350827  
H196     H      0.553210000000     0.706540000000     0.101600000000     0.0464899  
H197     H      0.553110000000     0.768070000000     0.124130000000     0.0463742  
H198     H      0.553200000000     0.846910000000     0.123650000000     0.0347893  
H199     H      0.419940000000     0.846720000000     0.102130000000     0.035083   
H200     H      0.420320000000     0.767820000000     0.101660000000     0.0464821  
H201     H      0.553190000000     0.206550000000     0.101550000000     0.0465083  
H202     H      0.553580000000     0.127660000000     0.102050000000     0.03508    
H203     H      0.420430000000     0.127490000000     0.123740000000     0.034786   
H204     H      0.420520000000     0.206330000000     0.124180000000     0.0464038  
H205     H      0.420300000000     0.267840000000     0.101630000000     0.0464894  
H206     H      0.419920000000     0.346740000000     0.102130000000     0.0350676  
H207     H      0.553180000000     0.346890000000     0.123660000000     0.0347769  
H208     H      0.553090000000     0.268050000000     0.124100000000     0.0463863  
H209     H      0.011150000000     0.421160000000     0.252750000000     0.0473632  
H210     H      0.010900000000     0.420930000000     0.292410000000     0.03464    
H211     H      0.963830000000     0.552870000000     0.292450000000     0.0346322  
H212     H      0.963650000000     0.552740000000     0.252790000000     0.0473914  
H213     H      0.921640000000     0.510760000000     0.222760000000     0.0473515  
H214     H      0.921490000000     0.510630000000     0.183100000000     0.0346449  
H215     H      0.053440000000     0.463550000000     0.183100000000     0.0346507  
H216     H      0.053220000000     0.463240000000     0.222770000000     0.047366   
H217     H      0.053900000000     0.464860000000     0.003140000000     0.0464569  
H218     H      0.054130000000     0.465720000000     0.042610000000     0.0351096  
H219     H      0.920950000000     0.508950000000     0.042630000000     0.0351122  
H220     H      0.921190000000     0.509970000000     0.003160000000     0.0464502  
H221     H      0.921180000000     0.464930000000     0.972370000000     0.0464669  
H222     H      0.920940000000     0.465930000000     0.932900000000     0.0351022  
H223     H      0.054130000000     0.509120000000     0.932910000000     0.0350777  
H224     H      0.053910000000     0.510000000000     0.972380000000     0.0464691  
H225     H      0.011340000000     0.921380000000     0.252690000000     0.0473606  
H226     H      0.011130000000     0.921200000000     0.292350000000     0.0346516  
H227     H      0.964050000000     0.053140000000     0.292350000000     0.0346362  
H228     H      0.963830000000     0.052960000000     0.252690000000     0.0473535  
H229     H      0.921780000000     0.010920000000     0.222690000000     0.0474047  
H230     H      0.921580000000     0.010720000000     0.183030000000     0.0346294  
H231     H      0.053530000000     0.963650000000     0.183010000000     0.0346065  
H232     H      0.053360000000     0.963420000000     0.222680000000     0.0473485  
H233     H      0.921140000000     0.964860000000     0.972290000000     0.0464477  
H234     H      0.920910000000     0.965880000000     0.932820000000     0.035076   
H235     H      0.054090000000     0.009110000000     0.932840000000     0.035155   
H236     H      0.053850000000     0.009980000000     0.972310000000     0.0465522  
H237     H      0.053860000000     0.964810000000     0.003060000000     0.0464408  
H238     H      0.054100000000     0.965670000000     0.042530000000     0.035085   
H239     H      0.920900000000     0.008870000000     0.042560000000     0.035162   
H240     H      0.921130000000     0.009890000000     0.003090000000     0.0465356  
H241     H      0.921090000000     0.767830000000     0.101600000000     0.0464982  
H242     H      0.920710000000     0.846730000000     0.102070000000     0.0350727  
H243     H      0.053910000000     0.846930000000     0.123670000000     0.0347676  
H244     H      0.053820000000     0.768090000000     0.124150000000     0.0464018  
H245     H      0.053980000000     0.706550000000     0.101630000000     0.0464747  
H246     H      0.054350000000     0.627660000000     0.102150000000     0.0350917  
H247     H      0.921150000000     0.627530000000     0.123750000000     0.0347788  
H248     H      0.921250000000     0.706370000000     0.124180000000     0.0463733  
H249     H      0.053950000000     0.206580000000     0.101570000000     0.0464902  
H250     H      0.054330000000     0.127680000000     0.102060000000     0.0351101  
H251     H      0.921140000000     0.127500000000     0.123660000000     0.0348084  
H252     H      0.921220000000     0.206340000000     0.124120000000     0.0463782  
H253     H      0.921060000000     0.267860000000     0.101580000000     0.0465194  
H254     H      0.920680000000     0.346760000000     0.102090000000     0.0350565  
H255     H      0.053880000000     0.346900000000     0.123700000000     0.0347683  
H256     H      0.053790000000     0.268060000000     0.124130000000     0.0463992  
O1       O      0.023760000000     0.987280000000     0.145690000000    -0.385956   
O2       O      0.023720000000     0.986430000000     0.079910000000    -0.38612    
O3       O      0.023890000000     0.052810000000     0.112500000000    -0.385423   
O4       O      0.023580000000     0.921380000000     0.113110000000    -0.386698   
O5       O      0.951160000000     0.921610000000     0.112500000000    -0.38556    
O6       O      0.951460000000     0.053040000000     0.113120000000    -0.38671    
O7       O      0.951300000000     0.988010000000     0.079920000000    -0.386116   
O8       O      0.951310000000     0.987130000000     0.145700000000    -0.386007   
O9       O      0.023740000000     0.486460000000     0.080000000000    -0.386027   
O10      O      0.023720000000     0.487230000000     0.145780000000    -0.386062   
O11      O      0.023560000000     0.421370000000     0.113170000000    -0.386736   
O12      O      0.023890000000     0.552800000000     0.112610000000    -0.385454   
O13      O      0.951460000000     0.553050000000     0.113210000000    -0.386664   
O14      O      0.951140000000     0.421620000000     0.112560000000    -0.385543   
O15      O      0.951270000000     0.487090000000     0.145770000000    -0.386098   
O16      O      0.951320000000     0.488060000000     0.079990000000    -0.386132   
O17      O      0.523110000000     0.987250000000     0.145700000000    -0.386099   
O18      O      0.522900000000     0.986420000000     0.079930000000    -0.386273   
O19      O      0.523150000000     0.052790000000     0.112520000000    -0.385566   
O20      O      0.522850000000     0.921360000000     0.113110000000    -0.386779   
O21      O      0.450420000000     0.921600000000     0.112550000000    -0.385493   
O22      O      0.450730000000     0.053030000000     0.113180000000    -0.386741   
O23      O      0.450490000000     0.988010000000     0.079970000000    -0.386203   
O24      O      0.450660000000     0.987100000000     0.145750000000    -0.385934   
O25      O      0.523070000000     0.487210000000     0.145760000000    -0.386026   
O26      O      0.522920000000     0.486450000000     0.079980000000    -0.386158   
O27      O      0.523150000000     0.552790000000     0.112590000000    -0.38554    
O28      O      0.522830000000     0.421360000000     0.113150000000    -0.386879   
O29      O      0.450410000000     0.421600000000     0.112580000000    -0.385633   
O30      O      0.450730000000     0.553030000000     0.113240000000    -0.386806   
O31      O      0.450510000000     0.488050000000     0.080020000000    -0.386144   
O32      O      0.450620000000     0.487070000000     0.145790000000    -0.386135   
O33      O      0.023720000000     0.988340000000     0.895460000000    -0.385992   
O34      O      0.023750000000     0.987500000000     0.829680000000    -0.38607    
O35      O      0.023570000000     0.053400000000     0.862270000000    -0.386644   
O36      O      0.023900000000     0.921970000000     0.862870000000    -0.385428   
O37      O      0.951470000000     0.921720000000     0.862250000000    -0.38666    
O38      O      0.951140000000     0.053150000000     0.862870000000    -0.385532   
O39      O      0.951310000000     0.987640000000     0.829680000000    -0.386126   
O40      O      0.951300000000     0.986740000000     0.895450000000    -0.386117   
O41      O      0.023740000000     0.488350000000     0.895530000000    -0.386052   
O42      O      0.023740000000     0.487480000000     0.829760000000    -0.385984   
O43      O      0.023580000000     0.553390000000     0.862340000000    -0.386722   
O44      O      0.023880000000     0.421960000000     0.862950000000    -0.38554    
O45      O      0.951460000000     0.421730000000     0.862340000000    -0.386743   
O46      O      0.951160000000     0.553160000000     0.862950000000    -0.385574   
O47      O      0.951290000000     0.487630000000     0.829760000000    -0.386053   
O48      O      0.951320000000     0.486760000000     0.895540000000    -0.386027   
O49      O      0.450470000000     0.987040000000     0.895470000000    -0.386224   
O50      O      0.450630000000     0.987930000000     0.829690000000    -0.386039   
O51      O      0.450710000000     0.922020000000     0.862270000000    -0.386853   
O52      O      0.450390000000     0.053440000000     0.862880000000    -0.385532   
O53      O      0.522810000000     0.053690000000     0.862320000000    -0.386766   
O54      O      0.523130000000     0.922260000000     0.862920000000    -0.385607   
O55      O      0.523070000000     0.987790000000     0.829740000000    -0.386142   
O56      O      0.522880000000     0.988640000000     0.895510000000    -0.386288   
O57      O      0.522900000000     0.488650000000     0.895550000000    -0.386214   
O58      O      0.523050000000     0.487770000000     0.829780000000    -0.386189   
O59      O      0.522820000000     0.553680000000     0.862360000000    -0.386805   
O60      O      0.523120000000     0.422250000000     0.862970000000    -0.385661   
O61      O      0.450700000000     0.422020000000     0.862330000000    -0.386817   
O62      O      0.450390000000     0.553450000000     0.862930000000    -0.385549   
O63      O      0.450610000000     0.487920000000     0.829740000000    -0.386149   
O64      O      0.450490000000     0.487060000000     0.895520000000    -0.386085   
O65      O      0.987520000000     0.950950000000     0.329680000000    -0.386086   
O66      O      0.988360000000     0.950990000000     0.395460000000    -0.386068   
O67      O      0.921980000000     0.950810000000     0.362860000000    -0.385525   
O68      O      0.053410000000     0.951130000000     0.362270000000    -0.386755   
O69      O      0.053170000000     0.023560000000     0.362880000000    -0.385404   
O70      O      0.921740000000     0.023230000000     0.362250000000    -0.386748   
O71      O      0.986760000000     0.023400000000     0.395450000000    -0.386029   
O72      O      0.987660000000     0.023400000000     0.329680000000    -0.386117   
O73      O      0.987270000000     0.450650000000     0.329760000000    -0.386088   
O74      O      0.988090000000     0.450630000000     0.395540000000    -0.386098   
O75      O      0.921720000000     0.450480000000     0.362930000000    -0.385543   
O76      O      0.053150000000     0.450800000000     0.362350000000    -0.386741   
O77      O      0.052910000000     0.523220000000     0.362970000000    -0.38556    
O78      O      0.921490000000     0.522910000000     0.362330000000    -0.386737   
O79      O      0.986500000000     0.523050000000     0.395540000000    -0.38612    
O80      O      0.987410000000     0.523090000000     0.329770000000    -0.38617    
O81      O      0.487450000000     0.950950000000     0.329710000000    -0.386089   
O82      O      0.488420000000     0.950980000000     0.395490000000    -0.38611    
O83      O      0.421980000000     0.950810000000     0.362920000000    -0.385526   
O84      O      0.553410000000     0.951120000000     0.362270000000    -0.386755   
O85      O      0.553180000000     0.023550000000     0.362880000000    -0.385425   
O86      O      0.421750000000     0.023240000000     0.362310000000    -0.386661   
O87      O      0.486830000000     0.023390000000     0.395490000000    -0.386127   
O88      O      0.487600000000     0.023390000000     0.329710000000    -0.386067   
O89      O      0.487200000000     0.450640000000     0.329760000000    -0.385981   
O90      O      0.488150000000     0.450620000000     0.395540000000    -0.386081   
O91      O      0.421720000000     0.450480000000     0.362970000000    -0.385598   
O92      O      0.553150000000     0.450790000000     0.362320000000    -0.386683   
O93      O      0.552910000000     0.523220000000     0.362940000000    -0.385567   
O94      O      0.421480000000     0.522900000000     0.362370000000    -0.386835   
O95      O      0.486560000000     0.523040000000     0.395540000000    -0.386228   
O96      O      0.487350000000     0.523090000000     0.329770000000    -0.386027   
O97      O      0.987650000000     0.951210000000     0.645700000000    -0.386164   
O98      O      0.986750000000     0.951160000000     0.579930000000    -0.386165   
O99      O      0.053150000000     0.951040000000     0.612500000000    -0.385538   
O100     O      0.921720000000     0.951340000000     0.613130000000    -0.386702   
O101     O      0.921960000000     0.023770000000     0.612500000000    -0.385517   
O102     O      0.053390000000     0.023460000000     0.613090000000    -0.386702   
O103     O      0.988340000000     0.023570000000     0.579910000000    -0.386168   
O104     O      0.987500000000     0.023660000000     0.645680000000    -0.386089   
O105     O      0.987520000000     0.451000000000     0.645790000000    -0.386146   
O106     O      0.986610000000     0.450860000000     0.580020000000    -0.386112   
O107     O      0.053020000000     0.450780000000     0.612590000000    -0.385568   
O108     O      0.921600000000     0.451090000000     0.613220000000    -0.38682    
O109     O      0.921830000000     0.523510000000     0.612580000000    -0.385581   
O110     O      0.053260000000     0.523200000000     0.613160000000    -0.38676    
O111     O      0.988200000000     0.523280000000     0.579980000000    -0.386218   
O112     O      0.987380000000     0.523440000000     0.645750000000    -0.386041   
O113     O      0.487430000000     0.023710000000     0.645710000000    -0.385939   
O114     O      0.488410000000     0.023560000000     0.579930000000    -0.385971   
O115     O      0.421960000000     0.023790000000     0.612490000000    -0.385473   
O116     O      0.553390000000     0.023470000000     0.613150000000    -0.386614   
O117     O      0.553150000000     0.951040000000     0.612580000000    -0.385544   
O118     O      0.421720000000     0.951360000000     0.613140000000    -0.386688   
O119     O      0.486810000000     0.951140000000     0.579970000000    -0.386074   
O120     O      0.487570000000     0.951260000000     0.645740000000    -0.386114   
O121     O      0.487310000000     0.523490000000     0.645750000000    -0.386088   
O122     O      0.488270000000     0.523260000000     0.579970000000    -0.386154   
O123     O      0.421830000000     0.523530000000     0.612530000000    -0.385543   
O124     O      0.553260000000     0.523220000000     0.613190000000    -0.386693   
O125     O      0.553020000000     0.450790000000     0.612640000000    -0.385573   
O126     O      0.421590000000     0.451100000000     0.613200000000    -0.386707   
O127     O      0.486680000000     0.450850000000     0.580030000000    -0.386153   
O128     O      0.487450000000     0.451040000000     0.645800000000    -0.38608    


