data_structure

_audit_creation_method RASPA-1.0
_audit_creation_date 2023-5-22
_audit_author_name 'Poobodin Mano'

_cell_length_a    30.8429
_cell_length_b    30.8496
_cell_length_c    46.154
_cell_angle_alpha 89.9999
_cell_angle_beta  90
_cell_angle_gamma 120
_cell_volume      38031.6

_symmetry_cell_setting          triclinic
_symmetry_space_group_name_Hall 'P 1'
_symmetry_space_group_name_H-M  'P 1'
_symmetry_Int_Tables_number     1

_symmetry_equiv_pos_as_xyz 'x,y,z'

loop_
_atom_site_label
_atom_site_type_symbol
_atom_site_fract_x
_atom_site_fract_y
_atom_site_fract_z
_atom_site_charge
C1       C      0.981360000000     0.987880000000     0.263750000000     0.355307   
C2       C      0.981610000000     0.987670000000     0.378910000000     0.35536    
C3       C      0.894740000000     0.902260000000     0.321420000000     0.356306   
C4       C      0.068250000000     0.073300000000     0.321400000000     0.356154   
C5       C      0.981440000000     0.487670000000     0.264450000000     0.357071   
C6       C      0.981390000000     0.487610000000     0.379330000000     0.357466   
C7       C      0.067560000000     0.573750000000     0.321890000000     0.355927   
C8       C      0.895280000000     0.401550000000     0.321860000000     0.356141   
C9       C      0.481540000000     0.987580000000     0.378960000000     0.356581   
C10      C      0.481240000000     0.987750000000     0.263890000000     0.356384   
C11      C      0.567520000000     0.073830000000     0.321410000000     0.356193   
C12      C      0.395280000000     0.901510000000     0.321460000000     0.356262   
C13      C      0.481520000000     0.487700000000     0.380220000000     0.357338   
C14      C      0.481520000000     0.487790000000     0.265190000000     0.356829   
C15      C      0.396250000000     0.400770000000     0.322600000000     0.356184   
C16      C      0.566790000000     0.574730000000     0.322630000000     0.356128   
C17      C      0.980520000000     0.987620000000     0.045570000000     0.355293   
C18      C      0.980310000000     0.987240000000     0.930410000000     0.35531    
C19      C      0.067240000000     0.988830000000     0.987940000000     0.355799   
C20      C      0.893580000000     0.986040000000     0.987960000000     0.355738   
C21      C      0.981270000000     0.487410000000     0.045760000000     0.357192   
C22      C      0.981100000000     0.487140000000     0.930810000000     0.357107   
C23      C      0.894080000000     0.485320000000     0.988280000000     0.355873   
C24      C      0.068280000000     0.489220000000     0.988250000000     0.355978   
C25      C      0.480460000000     0.987570000000     0.045890000000     0.356414   
C26      C      0.480400000000     0.987340000000     0.930860000000     0.356564   
C27      C      0.395230000000     0.989330000000     0.988410000000     0.355678   
C28      C      0.565600000000     0.985580000000     0.988440000000     0.355674   
C29      C      0.481250000000     0.487430000000     0.047200000000     0.356907   
C30      C      0.481130000000     0.487140000000     0.932130000000     0.356987   
C31      C      0.566600000000     0.485820000000     0.989690000000     0.356131   
C32      C      0.395780000000     0.488750000000     0.989670000000     0.355998   
C33      C      0.982410000000     0.901470000000     0.654660000000     0.355896   
C34      C      0.979600000000     0.072340000000     0.654600000000     0.355789   
C35      C      0.981230000000     0.986980000000     0.597080000000     0.355522   
C36      C      0.980780000000     0.986840000000     0.712230000000     0.355546   
C37      C      0.979140000000     0.399850000000     0.655500000000     0.355745   
C38      C      0.982920000000     0.573980000000     0.655570000000     0.355867   
C39      C      0.981070000000     0.487000000000     0.598020000000     0.357608   
C40      C      0.980980000000     0.486840000000     0.712980000000     0.357002   
C41      C      0.484480000000     0.902510000000     0.654470000000     0.355857   
C42      C      0.477860000000     0.071430000000     0.654390000000     0.355897   
C43      C      0.481340000000     0.987000000000     0.596960000000     0.356402   
C44      C      0.480990000000     0.986960000000     0.711990000000     0.356923   
C45      C      0.477890000000     0.399210000000     0.656620000000     0.355759   
C46      C      0.484510000000     0.574760000000     0.656710000000     0.355839   
C47      C      0.481270000000     0.487090000000     0.599100000000     0.357261   
C48      C      0.481140000000     0.486890000000     0.714130000000     0.356968   
C49      C      0.444010000000     0.765250000000     0.646570000000    -0.0658797  
C50      C      0.487230000000     0.764150000000     0.655160000000     0.0224907  
C51      C      0.530030000000     0.809440000000     0.663030000000    -0.0654799  
C52      C      0.529460000000     0.854510000000     0.662480000000     0.023161   
C53      C      0.485900000000     0.855230000000     0.654390000000    -0.104973   
C54      C      0.443250000000     0.810110000000     0.646380000000     0.0232919  
C55      C      0.487240000000     0.715850000000     0.656090000000     0.0225827  
C56      C      0.444000000000     0.671530000000     0.664630000000    -0.0659644  
C57      C      0.443250000000     0.625910000000     0.664800000000     0.0233198  
C58      C      0.485930000000     0.623450000000     0.656830000000    -0.105062   
C59      C      0.529510000000     0.667760000000     0.648790000000     0.023203   
C60      C      0.530080000000     0.713400000000     0.648270000000    -0.0655776  
C61      C      0.432290000000     0.164520000000     0.662820000000    -0.0655115  
C62      C      0.475140000000     0.209800000000     0.655000000000     0.0225625  
C63      C      0.518370000000     0.208700000000     0.646470000000    -0.0658737  
C64      C      0.519120000000     0.163830000000     0.646290000000     0.0232948  
C65      C      0.476440000000     0.118710000000     0.654260000000    -0.104898   
C66      C      0.432860000000     0.119440000000     0.662300000000     0.0231695  
C67      C      0.475140000000     0.258110000000     0.655930000000     0.0225474  
C68      C      0.432330000000     0.260600000000     0.648070000000    -0.0655553  
C69      C      0.432910000000     0.306240000000     0.648620000000     0.0232259  
C70      C      0.476470000000     0.350520000000     0.656710000000    -0.105048   
C71      C      0.519120000000     0.348040000000     0.664710000000     0.023303   
C72      C      0.518360000000     0.302410000000     0.664520000000    -0.0659146  
C73      C      0.940500000000     0.763760000000     0.647010000000    -0.0657816  
C74      C      0.983940000000     0.762520000000     0.654920000000     0.0223097  
C75      C      0.027050000000     0.807700000000     0.662530000000    -0.0653796  
C76      C      0.026710000000     0.852850000000     0.662220000000     0.0237137  
C77      C      0.983070000000     0.853820000000     0.654640000000    -0.105391   
C78      C      0.939970000000     0.808780000000     0.647070000000     0.0234987  
C79      C      0.984090000000     0.714280000000     0.655350000000     0.0222917  
C80      C      0.941200000000     0.669760000000     0.664040000000    -0.0660005  
C81      C      0.940880000000     0.624340000000     0.664010000000     0.0234381  
C82      C      0.983660000000     0.622320000000     0.655690000000    -0.105648   
C83      C      0.026800000000     0.666780000000     0.647370000000     0.0236745  
C84      C      0.026920000000     0.712170000000     0.647020000000    -0.0653939  
C85      C      0.935160000000     0.261670000000     0.646850000000    -0.0656933  
C86      C      0.977950000000     0.259540000000     0.655230000000     0.0223231  
C87      C      0.020810000000     0.304030000000     0.663980000000    -0.0657034  
C88      C      0.021140000000     0.349460000000     0.663960000000     0.0237211  
C89      C      0.978400000000     0.351500000000     0.655600000000    -0.105537   
C90      C      0.935290000000     0.307080000000     0.647210000000     0.0233405  
C91      C      0.978080000000     0.211290000000     0.654800000000     0.0223114  
C92      C      0.934930000000     0.166100000000     0.662350000000    -0.0656809  
C93      C      0.935270000000     0.120940000000     0.662050000000     0.0234657  
C94      C      0.978940000000     0.119980000000     0.654550000000    -0.10538    
C95      C      0.022080000000     0.165030000000     0.647040000000     0.0238275  
C96      C      0.021560000000     0.210050000000     0.646970000000    -0.0654611  
C97      C      0.481720000000     0.526570000000     0.854410000000    -0.0667358  
C98      C      0.481070000000     0.486950000000     0.839110000000     0.0229251  
C99      C      0.480440000000     0.447390000000     0.854470000000    -0.066666   
C100     C      0.479820000000     0.447130000000     0.884760000000     0.0245361  
C101     C      0.481100000000     0.487070000000     0.900140000000    -0.105963   
C102     C      0.482370000000     0.526950000000     0.884690000000     0.0245714  
C103     C      0.481070000000     0.486890000000     0.807150000000     0.0230164  
C104     C      0.441960000000     0.487210000000     0.791810000000    -0.0667958  
C105     C      0.441650000000     0.486570000000     0.761530000000     0.0246591  
C106     C      0.481100000000     0.486870000000     0.746120000000    -0.105978   
C107     C      0.520540000000     0.487170000000     0.761550000000     0.0245758  
C108     C      0.520190000000     0.486550000000     0.791840000000    -0.0667338  
C109     C      0.436950000000     0.954750000000     0.853310000000    -0.0655432  
C110     C      0.480620000000     0.987170000000     0.837650000000     0.0227377  
C111     C      0.524200000000     0.019640000000     0.853360000000    -0.0652059  
C112     C      0.523840000000     0.020250000000     0.883630000000     0.0253396  
C113     C      0.480460000000     0.987290000000     0.898960000000    -0.10658    
C114     C      0.437170000000     0.954260000000     0.883590000000     0.0250416  
C115     C      0.480710000000     0.987110000000     0.805210000000     0.0227593  
C116     C      0.448710000000     0.943310000000     0.789530000000    -0.0655547  
C117     C      0.448250000000     0.943540000000     0.759250000000     0.0251154  
C118     C      0.480900000000     0.987000000000     0.743890000000    -0.106686   
C119     C      0.513440000000     0.030520000000     0.759230000000     0.0254076  
C120     C      0.512790000000     0.030850000000     0.789510000000    -0.0652475  
C121     C      0.798210000000     0.526920000000     0.979910000000    -0.0661296  
C122     C      0.753760000000     0.484090000000     0.988730000000     0.0226625  
C123     C      0.755930000000     0.441330000000     0.997100000000    -0.0667357  
C124     C      0.801330000000     0.441460000000     0.996660000000     0.0223167  
C125     C      0.845720000000     0.484550000000     0.988210000000    -0.105195   
C126     C      0.843640000000     0.527250000000     0.979850000000     0.0233832  
C127     C      0.705520000000     0.484230000000     0.989260000000     0.0226925  
C128     C      0.704330000000     0.527700000000     0.997160000000    -0.0669181  
C129     C      0.659320000000     0.528230000000     0.997170000000     0.0225405  
C130     C      0.614220000000     0.485120000000     0.989680000000    -0.105158   
C131     C      0.615130000000     0.441460000000     0.982130000000     0.0234361  
C132     C      0.660280000000     0.441100000000     0.981740000000    -0.0658991  
C133     C      0.164150000000     0.447580000000     0.979940000000    -0.0661016  
C134     C      0.208620000000     0.490460000000     0.988690000000     0.0226522  
C135     C      0.206470000000     0.533270000000     0.996990000000    -0.0667185  
C136     C      0.161060000000     0.533130000000     0.996550000000     0.0223195  
C137     C      0.116650000000     0.490000000000     0.988180000000    -0.105098   
C138     C      0.118710000000     0.447250000000     0.979880000000     0.0233238  
C139     C      0.256860000000     0.490320000000     0.989220000000     0.0227463  
C140     C      0.258060000000     0.446900000000     0.997190000000    -0.0668985  
C141     C      0.303080000000     0.446360000000     0.997210000000     0.0225035  
C142     C      0.348160000000     0.489440000000     0.989660000000    -0.105115   
C143     C      0.347220000000     0.533060000000     0.982030000000     0.0234181  
C144     C      0.302070000000     0.533410000000     0.981630000000    -0.0659079  
C145     C      0.981260000000     0.526370000000     0.853140000000    -0.0670662  
C146     C      0.980980000000     0.486930000000     0.837860000000     0.0230644  
C147     C      0.980730000000     0.447550000000     0.853200000000    -0.0670482  
C148     C      0.980140000000     0.447290000000     0.883470000000     0.0247866  
C149     C      0.981050000000     0.487060000000     0.898850000000    -0.106529   
C150     C      0.981930000000     0.526760000000     0.883410000000     0.024777   
C151     C      0.980960000000     0.486870000000     0.805920000000     0.0226226  
C152     C      0.941530000000     0.486560000000     0.790610000000    -0.0669051  
C153     C      0.941210000000     0.485910000000     0.760330000000     0.0247948  
C154     C      0.980960000000     0.486820000000     0.744940000000    -0.10677    
C155     C      0.020720000000     0.487750000000     0.760350000000     0.0250855  
C156     C      0.020390000000     0.487140000000     0.790620000000    -0.0665859  
C157     C      0.797800000000     0.027950000000     0.980130000000    -0.0657385  
C158     C      0.753110000000     0.984530000000     0.988030000000     0.0224485  
C159     C      0.755160000000     0.941440000000     0.995700000000    -0.0668426  
C160     C      0.800660000000     0.941780000000     0.995450000000     0.0224446  
C161     C      0.845270000000     0.985390000000     0.987880000000    -0.105392   
C162     C      0.843350000000     0.028470000000     0.980260000000     0.0237722  
C163     C      0.704720000000     0.984400000000     0.988380000000     0.0223527  
C164     C      0.703070000000     0.027270000000     0.997050000000    -0.0666648  
C165     C      0.657970000000     0.027600000000     0.996960000000     0.0227095  
C166     C      0.613210000000     0.984840000000     0.988610000000    -0.105366   
C167     C      0.614540000000     0.941710000000     0.980300000000     0.0232646  
C168     C      0.659820000000     0.941580000000     0.980010000000    -0.0657889  
C169     C      0.162990000000     0.946890000000     0.980160000000    -0.0659646  
C170     C      0.207720000000     0.990360000000     0.987980000000     0.0224184  
C171     C      0.205680000000     0.033480000000     0.995580000000    -0.0664886  
C172     C      0.160180000000     0.033140000000     0.995340000000     0.0227289  
C173     C      0.115540000000     0.989480000000     0.987850000000    -0.105388   
C174     C      0.117450000000     0.946360000000     0.980300000000     0.0234953  
C175     C      0.256100000000     0.990490000000     0.988330000000     0.0223656  
C176     C      0.257780000000     0.947660000000     0.997070000000    -0.0669686  
C177     C      0.302890000000     0.947340000000     0.996990000000     0.0224128  
C178     C      0.347620000000     0.990060000000     0.988560000000    -0.105399   
C179     C      0.346270000000     0.033150000000     0.980190000000     0.023597   
C180     C      0.300980000000     0.033270000000     0.979890000000    -0.0654629  
C181     C      0.940930000000     0.986270000000     0.789910000000    -0.0665314  
C182     C      0.980470000000     0.986910000000     0.805320000000     0.0225184  
C183     C      0.020090000000     0.987510000000     0.790040000000    -0.0661596  
C184     C      0.020510000000     0.988110000000     0.759750000000     0.0244244  
C185     C      0.980660000000     0.986840000000     0.744250000000    -0.105536   
C186     C      0.940710000000     0.985600000000     0.759620000000     0.0241658  
C187     C      0.980380000000     0.986970000000     0.837320000000     0.0224813  
C188     C      0.979770000000     0.025980000000     0.852610000000    -0.0661335  
C189     C      0.980370000000     0.026400000000     0.882900000000     0.0243998  
C190     C      0.980300000000     0.987140000000     0.898390000000    -0.105518   
C191     C      0.980260000000     0.947780000000     0.883020000000     0.0240589  
C192     C      0.980930000000     0.948040000000     0.852720000000    -0.0664732  
C193     C      0.437840000000     0.476400000000     0.457750000000    -0.0655816  
C194     C      0.481430000000     0.487470000000     0.473440000000     0.0230318  
C195     C      0.525050000000     0.498630000000     0.457760000000    -0.0655913  
C196     C      0.524800000000     0.497880000000     0.427480000000     0.0250576  
C197     C      0.481500000000     0.487640000000     0.412120000000    -0.106452   
C198     C      0.438160000000     0.477320000000     0.427470000000     0.0250368  
C199     C      0.481380000000     0.487370000000     0.505880000000     0.0230028  
C200     C      0.449350000000     0.499100000000     0.521590000000    -0.0655858  
C201     C      0.448750000000     0.498170000000     0.551860000000     0.0250541  
C202     C      0.481300000000     0.487180000000     0.567200000000    -0.106429   
C203     C      0.513890000000     0.476290000000     0.551840000000     0.0250398  
C204     C      0.513380000000     0.475550000000     0.521550000000    -0.0655898  
C205     C      0.442380000000     0.488180000000     0.187510000000    -0.0667279  
C206     C      0.481420000000     0.487720000000     0.172180000000     0.0230455  
C207     C      0.520500000000     0.487310000000     0.187490000000    -0.0667119  
C208     C      0.520230000000     0.486720000000     0.217780000000     0.0246028  
C209     C      0.481490000000     0.487790000000     0.233200000000    -0.105916   
C210     C      0.442720000000     0.488840000000     0.217800000000     0.0245928  
C211     C      0.481370000000     0.487660000000     0.140210000000     0.0230166  
C212     C      0.441810000000     0.448600000000     0.124920000000    -0.0666736  
C213     C      0.442070000000     0.448200000000     0.094630000000     0.0246304  
C214     C      0.481290000000     0.487510000000     0.079180000000    -0.105843   
C215     C      0.520550000000     0.526890000000     0.094570000000     0.0246426  
C216     C      0.520880000000     0.526640000000     0.124850000000    -0.0666604  
C217     C      0.442370000000     0.947780000000     0.519230000000    -0.0667321  
C218     C      0.481560000000     0.987220000000     0.503950000000     0.0227376  
C219     C      0.520700000000     0.026560000000     0.519310000000    -0.0663556  
C220     C      0.520960000000     0.026180000000     0.549600000000     0.0249095  
C221     C      0.481430000000     0.987060000000     0.564970000000    -0.106156   
C222     C      0.441980000000     0.948010000000     0.549510000000     0.0246437  
C223     C      0.481600000000     0.987330000000     0.471970000000     0.022746   
C224     C      0.481730000000     0.948170000000     0.456600000000    -0.0666825  
C225     C      0.482350000000     0.948560000000     0.426310000000     0.0245899  
C226     C      0.481590000000     0.987510000000     0.410950000000    -0.106229   
C227     C      0.480850000000     0.026370000000     0.426420000000     0.0249698  
C228     C      0.481480000000     0.026590000000     0.456700000000    -0.0664255  
C229     C      0.519830000000     0.027120000000     0.123540000000    -0.0662453  
C230     C      0.480750000000     0.987720000000     0.138910000000     0.022586   
C231     C      0.441560000000     0.948280000000     0.123620000000    -0.0665526  
C232     C      0.441760000000     0.947920000000     0.093340000000     0.0245632  
C233     C      0.480540000000     0.987630000000     0.077880000000    -0.105922   
C234     C      0.519420000000     0.027400000000     0.093260000000     0.0248473  
C235     C      0.480880000000     0.987750000000     0.170870000000     0.0230197  
C236     C      0.520230000000     0.987760000000     0.186130000000    -0.0666961  
C237     C      0.520050000000     0.987140000000     0.216420000000     0.0244568  
C238     C      0.481120000000     0.987760000000     0.231900000000    -0.105787   
C239     C      0.442080000000     0.988370000000     0.216550000000     0.024505   
C240     C      0.441650000000     0.987740000000     0.186270000000    -0.0667177  
C241     C      0.937510000000     0.475740000000     0.456790000000    -0.0657271  
C242     C      0.981250000000     0.487380000000     0.472470000000     0.0228099  
C243     C      0.025060000000     0.499120000000     0.456810000000    -0.0654635  
C244     C      0.024820000000     0.498370000000     0.426550000000     0.0256649  
C245     C      0.981350000000     0.487560000000     0.411200000000    -0.107214   
C246     C      0.937830000000     0.476670000000     0.426520000000     0.0253122  
C247     C      0.981200000000     0.487270000000     0.504880000000     0.0228143  
C248     C      0.948930000000     0.498680000000     0.520560000000    -0.06574    
C249     C      0.948330000000     0.497750000000     0.550830000000     0.0253485  
C250     C      0.981110000000     0.487070000000     0.566150000000    -0.107282   
C251     C      0.013930000000     0.476490000000     0.550810000000     0.0256959  
C252     C      0.013420000000     0.475750000000     0.520540000000    -0.0654421  
C253     C      0.705670000000     0.168600000000     0.314020000000    -0.0657882  
C254     C      0.707220000000     0.213550000000     0.321580000000     0.022654   
C255     C      0.662200000000     0.211930000000     0.329060000000    -0.0657485  
C256     C      0.616850000000     0.166670000000     0.328810000000     0.023528   
C257     C      0.615490000000     0.121820000000     0.321450000000    -0.105177   
C258     C      0.660400000000     0.123250000000     0.314140000000     0.0235587  
C259     C      0.755540000000     0.261860000000     0.321660000000     0.0225517  
C260     C      0.800130000000     0.263790000000     0.330530000000    -0.0658504  
C261     C      0.845490000000     0.309030000000     0.330420000000     0.0233042  
C262     C      0.847290000000     0.353580000000     0.321810000000    -0.105479   
C263     C      0.802790000000     0.351850000000     0.313120000000     0.0232994  
C264     C      0.757530000000     0.306510000000     0.312870000000    -0.0658403  
C265     C      0.205290000000     0.668830000000     0.312890000000    -0.0658569  
C266     C      0.207280000000     0.713460000000     0.321730000000     0.0225498  
C267     C      0.162700000000     0.711490000000     0.330650000000    -0.0658017  
C268     C      0.117340000000     0.666240000000     0.330530000000     0.0232594  
C269     C      0.115550000000     0.621710000000     0.321860000000    -0.105375   
C270     C      0.160040000000     0.623480000000     0.313130000000     0.0233154  
C271     C      0.255590000000     0.761770000000     0.321650000000     0.0226566  
C272     C      0.300640000000     0.763390000000     0.329060000000    -0.0657908  
C273     C      0.345980000000     0.808650000000     0.328810000000     0.023515   
C274     C      0.347310000000     0.853520000000     0.321510000000    -0.105215   
C275     C      0.302370000000     0.852090000000     0.314270000000     0.0235378  
C276     C      0.257110000000     0.806740000000     0.314160000000    -0.0658212  
C277     C      0.992850000000     0.455320000000     0.123250000000    -0.0659076  
C278     C      0.981380000000     0.487570000000     0.138900000000     0.0231493  
C279     C      0.969900000000     0.519790000000     0.123220000000    -0.0656367  
C280     C      0.970700000000     0.520290000000     0.092950000000     0.0251934  
C281     C      0.981320000000     0.487470000000     0.077640000000    -0.106389   
C282     C      0.991980000000     0.454720000000     0.092980000000     0.0249732  
C283     C      0.981400000000     0.487600000000     0.171310000000     0.0231514  
C284     C      0.969710000000     0.443850000000     0.186990000000    -0.0656853  
C285     C      0.970550000000     0.444150000000     0.217260000000     0.0251414  
C286     C      0.981420000000     0.487660000000     0.232570000000    -0.106496   
C287     C      0.992280000000     0.531130000000     0.217230000000     0.0249198  
C288     C      0.993100000000     0.531380000000     0.186970000000    -0.0659663  
C289     C      0.942410000000     0.947740000000     0.519290000000    -0.0664032  
C290     C      0.981540000000     0.987240000000     0.504000000000     0.0222163  
C291     C      0.020580000000     0.026640000000     0.519400000000    -0.0657686  
C292     C      0.020820000000     0.026250000000     0.549690000000     0.0248501  
C293     C      0.981350000000     0.987050000000     0.565070000000    -0.105939   
C294     C      0.941990000000     0.947940000000     0.549580000000     0.0242841  
C295     C      0.981610000000     0.987370000000     0.471990000000     0.0226721  
C296     C      0.981320000000     0.948010000000     0.456590000000    -0.0665699  
C297     C      0.981970000000     0.948410000000     0.426300000000     0.024195   
C298     C      0.981640000000     0.987580000000     0.410920000000    -0.105622   
C299     C      0.981320000000     0.026650000000     0.426410000000     0.0245427  
C300     C      0.981930000000     0.026850000000     0.456700000000    -0.0662465  
C301     C      0.799200000000     0.764620000000     0.329730000000    -0.0659609  
C302     C      0.754350000000     0.763230000000     0.322060000000     0.0227032  
C303     C      0.756250000000     0.808270000000     0.314300000000    -0.0658754  
C304     C      0.801730000000     0.853440000000     0.314290000000     0.0235767  
C305     C      0.846490000000     0.854570000000     0.321660000000    -0.105371   
C306     C      0.844720000000     0.809650000000     0.329340000000     0.0236248  
C307     C      0.705970000000     0.714970000000     0.322020000000     0.0225469  
C308     C      0.704190000000     0.670340000000     0.313460000000    -0.0659271  
C309     C      0.659080000000     0.624920000000     0.313800000000     0.0234495  
C310     C      0.614440000000     0.623030000000     0.322310000000    -0.105295   
C311     C      0.615900000000     0.667580000000     0.330540000000     0.0233887  
C312     C      0.661190000000     0.712980000000     0.330580000000    -0.0656372  
C313     C      0.258820000000     0.305210000000     0.313480000000    -0.0660047  
C314     C      0.257050000000     0.260550000000     0.321970000000     0.0226422  
C315     C      0.301840000000     0.262500000000     0.330470000000    -0.0656957  
C316     C      0.347140000000     0.307900000000     0.330440000000     0.0234394  
C317     C      0.348600000000     0.352480000000     0.322280000000    -0.105339   
C318     C      0.303940000000     0.350620000000     0.313820000000     0.0234902  
C319     C      0.208660000000     0.212300000000     0.322020000000     0.0226299  
C320     C      0.163840000000     0.210910000000     0.329770000000    -0.0657999  
C321     C      0.118310000000     0.165890000000     0.329380000000     0.0235458  
C322     C      0.116510000000     0.120980000000     0.321630000000    -0.105184   
C323     C      0.161230000000     0.122110000000     0.314180000000     0.0235615  
C324     C      0.206720000000     0.167270000000     0.314190000000    -0.0657268  
C325     C      0.019840000000     0.027310000000     0.123270000000    -0.0658221  
C326     C      0.980860000000     0.987850000000     0.138660000000     0.0220976  
C327     C      0.941760000000     0.948320000000     0.123380000000    -0.0664623  
C328     C      0.941950000000     0.947930000000     0.093080000000     0.0240783  
C329     C      0.980620000000     0.987720000000     0.077590000000    -0.105681   
C330     C      0.019400000000     0.027580000000     0.092970000000     0.0246725  
C331     C      0.981010000000     0.987890000000     0.170660000000     0.0225459  
C332     C      0.020140000000     0.987500000000     0.185930000000    -0.0663017  
C333     C      0.019950000000     0.986870000000     0.216230000000     0.0243457  
C334     C      0.981250000000     0.987900000000     0.231730000000    -0.105548   
C335     C      0.942430000000     0.988950000000     0.216360000000     0.0240079  
C336     C      0.942000000000     0.988300000000     0.186060000000    -0.0666195  
Cu1      Cu     0.004230000000     0.964140000000     0.321270000000     0.839225   
Cu2      Cu     0.958750000000     0.011420000000     0.321390000000     0.839235   
Cu3      Cu     0.958240000000     0.510850000000     0.321890000000     0.839932   
Cu4      Cu     0.004600000000     0.464450000000     0.321890000000     0.841041   
Cu5      Cu     0.504610000000     0.964500000000     0.321360000000     0.839604   
Cu6      Cu     0.458170000000     0.010840000000     0.321490000000     0.840935   
Cu7      Cu     0.457460000000     0.510080000000     0.322740000000     0.840107   
Cu8      Cu     0.505580000000     0.465430000000     0.322710000000     0.8402     
Cu9      Cu     0.957740000000     0.941060000000     0.988040000000     0.837438   
Cu10     Cu     0.003080000000     0.033810000000     0.987940000000     0.839145   
Cu11     Cu     0.003420000000     0.533650000000     0.988270000000     0.840368   
Cu12     Cu     0.958950000000     0.440890000000     0.988340000000     0.839223   
Cu13     Cu     0.504540000000     0.033830000000     0.988330000000     0.839463   
Cu14     Cu     0.456300000000     0.941080000000     0.988390000000     0.838955   
Cu15     Cu     0.457440000000     0.440910000000     0.989700000000     0.839334   
Cu16     Cu     0.504940000000     0.533660000000     0.989630000000     0.839417   
Cu17     Cu     0.934620000000     0.963190000000     0.654600000000     0.838319   
Cu18     Cu     0.027390000000     0.010620000000     0.654720000000     0.840145   
Cu19     Cu     0.934640000000     0.464650000000     0.655460000000     0.840185   
Cu20     Cu     0.027420000000     0.509170000000     0.655490000000     0.840716   
Cu21     Cu     0.434800000000     0.962330000000     0.654450000000     0.839215   
Cu22     Cu     0.527530000000     0.011620000000     0.654540000000     0.84035    
Cu23     Cu     0.434840000000     0.465280000000     0.656580000000     0.839704   
Cu24     Cu     0.527570000000     0.508690000000     0.656610000000     0.83945    
H1       H      0.563790000000     0.810040000000     0.670130000000     0.0465433  
H2       H      0.562870000000     0.888630000000     0.668910000000     0.0352261  
H3       H      0.409240000000     0.809420000000     0.639710000000     0.0349108  
H4       H      0.410690000000     0.731440000000     0.639720000000     0.0462616  
H5       H      0.410650000000     0.672000000000     0.671450000000     0.0462503  
H6       H      0.409220000000     0.592570000000     0.671430000000     0.0347931  
H7       H      0.562950000000     0.667070000000     0.642390000000     0.0352103  
H8       H      0.563850000000     0.746560000000     0.641200000000     0.046571   
H9       H      0.551720000000     0.242520000000     0.639650000000     0.0462559  
H10      H      0.553150000000     0.164520000000     0.639670000000     0.0349263  
H11      H      0.399420000000     0.085320000000     0.668690000000     0.0353453  
H12      H      0.398520000000     0.163910000000     0.669880000000     0.046633   
H13      H      0.398580000000     0.227450000000     0.640970000000     0.0466095  
H14      H      0.399490000000     0.306950000000     0.642190000000     0.0352259  
H15      H      0.553130000000     0.381360000000     0.671380000000     0.0347983  
H16      H      0.551690000000     0.301920000000     0.671370000000     0.0462324  
H17      H      0.060960000000     0.808210000000     0.669210000000     0.0463818  
H18      H      0.060460000000     0.886890000000     0.668350000000     0.03483    
H19      H      0.905880000000     0.808310000000     0.640850000000     0.0348394  
H20      H      0.906880000000     0.730000000000     0.640430000000     0.0462877  
H21      H      0.907870000000     0.669950000000     0.671200000000     0.0463066  
H22      H      0.907180000000     0.590840000000     0.670830000000     0.0346769  
H23      H      0.060260000000     0.666400000000     0.640660000000     0.0350649  
H24      H      0.060390000000     0.745450000000     0.639760000000     0.0465256  
H25      H      0.054110000000     0.303820000000     0.671180000000     0.0463249  
H26      H      0.054820000000     0.382940000000     0.670830000000     0.0346791  
H27      H      0.901850000000     0.307470000000     0.640460000000     0.0350814  
H28      H      0.901720000000     0.228420000000     0.639540000000     0.0465532  
H29      H      0.901000000000     0.165580000000     0.668970000000     0.0464414  
H30      H      0.901490000000     0.086890000000     0.668130000000     0.0349242  
H31      H      0.056200000000     0.165500000000     0.640880000000     0.0348434  
H32      H      0.055210000000     0.243830000000     0.640440000000     0.0462939  
H33      H      0.479810000000     0.416420000000     0.843010000000     0.0481873  
H34      H      0.479070000000     0.416040000000     0.896130000000     0.0338766  
H35      H      0.483130000000     0.558080000000     0.896020000000     0.0338584  
H36      H      0.482340000000     0.557480000000     0.842900000000     0.0482138  
H37      H      0.411390000000     0.487360000000     0.803280000000     0.0481642  
H38      H      0.410910000000     0.486580000000     0.750170000000     0.0337247  
H39      H      0.551290000000     0.487160000000     0.750210000000     0.0337325  
H40      H      0.550760000000     0.486420000000     0.803330000000     0.0481298  
H41      H      0.559030000000     0.044300000000     0.842420000000     0.0464479  
H42      H      0.557870000000     0.045720000000     0.895090000000     0.0325482  
H43      H      0.403080000000     0.928830000000     0.895020000000     0.0325156  
H44      H      0.402180000000     0.930040000000     0.842340000000     0.0464511  
H45      H      0.424330000000     0.908430000000     0.800490000000     0.0464637  
H46      H      0.423150000000     0.909340000000     0.747810000000     0.0325255  
H47      H      0.538610000000     0.064680000000     0.747790000000     0.0325247  
H48      H      0.537100000000     0.065770000000     0.800450000000     0.0464594  
H49      H      0.722690000000     0.407900000000     0.004450000000     0.047689   
H50      H      0.801760000000     0.408040000000     0.003410000000     0.0362331  
H51      H      0.877100000000     0.560920000000     0.972940000000     0.034599   
H52      H      0.797950000000     0.560200000000     0.972720000000     0.0461513  
H53      H      0.738140000000     0.561330000000     0.003670000000     0.0474379  
H54      H      0.659820000000     0.562350000000     0.003370000000     0.0358712  
H55      H      0.581050000000     0.407700000000     0.976060000000     0.0347504  
H56      H      0.659740000000     0.407180000000     0.975090000000     0.046278   
H57      H      0.239720000000     0.566730000000     0.004290000000     0.0477029  
H58      H      0.160650000000     0.566580000000     0.003250000000     0.0362642  
H59      H      0.085240000000     0.413550000000     0.973030000000     0.0347126  
H60      H      0.164380000000     0.414270000000     0.972810000000     0.0462188  
H61      H      0.224270000000     0.413300000000     0.003760000000     0.0474723  
H62      H      0.302590000000     0.412280000000     0.003470000000     0.0359075  
H63      H      0.381290000000     0.566790000000     0.975910000000     0.0347515  
H64      H      0.302600000000     0.567300000000     0.974920000000     0.0462847  
H65      H      0.980390000000     0.416730000000     0.841730000000     0.0480195  
H66      H      0.979700000000     0.416350000000     0.894850000000     0.0335365  
H67      H      0.982400000000     0.557750000000     0.894740000000     0.0335056  
H68      H      0.981580000000     0.557140000000     0.841630000000     0.0480454  
H69      H      0.910720000000     0.486230000000     0.802090000000     0.0480433  
H70      H      0.910230000000     0.485430000000     0.748980000000     0.0335875  
H71      H      0.051700000000     0.488220000000     0.749000000000     0.0335998  
H72      H      0.051200000000     0.487500000000     0.802120000000     0.0480805  
H73      H      0.721740000000     0.907560000000     0.002370000000     0.0475447  
H74      H      0.800940000000     0.908040000000     0.001630000000     0.0358572  
H75      H      0.877000000000     0.062550000000     0.974040000000     0.0345502  
H76      H      0.797670000000     0.061550000000     0.973510000000     0.0461208  
H77      H      0.736580000000     0.060590000000     0.004240000000     0.0474615  
H78      H      0.658150000000     0.061300000000     0.003770000000     0.035943   
H79      H      0.580720000000     0.908260000000     0.973570000000     0.0350834  
H80      H      0.659660000000     0.908130000000     0.972770000000     0.0464032  
H81      H      0.239120000000     0.067400000000     0.002180000000     0.0475522  
H82      H      0.159910000000     0.066900000000     0.001460000000     0.035878   
H83      H      0.083780000000     0.912250000000     0.974140000000     0.0346453  
H84      H      0.163110000000     0.913250000000     0.973600000000     0.046131   
H85      H      0.224290000000     0.914380000000     0.004310000000     0.047497   
H86      H      0.302720000000     0.913680000000     0.003850000000     0.0359653  
H87      H      0.380070000000     0.066570000000     0.973400000000     0.0350752  
H88      H      0.301120000000     0.066690000000     0.972600000000     0.0464124  
H89      H      0.051000000000     0.988130000000     0.801580000000     0.0480979  
H90      H      0.051660000000     0.988840000000     0.748450000000     0.0339188  
H91      H      0.909630000000     0.984850000000     0.748220000000     0.0339182  
H92      H      0.909960000000     0.985690000000     0.801340000000     0.0480646  
H93      H      0.979460000000     0.056430000000     0.841080000000     0.0480063  
H94      H      0.980170000000     0.057080000000     0.894200000000     0.0337494  
H95      H      0.980450000000     0.917170000000     0.894410000000     0.0337812  
H96      H      0.981290000000     0.917540000000     0.841290000000     0.047958   
H97      H      0.559830000000     0.508670000000     0.468720000000     0.0463567  
H98      H      0.558860000000     0.506470000000     0.416040000000     0.0324498  
H99      H      0.404120000000     0.468790000000     0.416020000000     0.0324704  
H100     H      0.403030000000     0.466300000000     0.468690000000     0.0463689  
H101     H      0.425040000000     0.509720000000     0.510650000000     0.0463613  
H102     H      0.423630000000     0.507210000000     0.563320000000     0.0324407  
H103     H      0.538990000000     0.467180000000     0.563270000000     0.0324281  
H104     H      0.537720000000     0.465000000000     0.510590000000     0.0463693  
H105     H      0.550890000000     0.486820000000     0.176000000000     0.0482337  
H106     H      0.550690000000     0.486130000000     0.229120000000     0.0338403  
H107     H      0.412290000000     0.489440000000     0.229150000000     0.0338457  
H108     H      0.411960000000     0.488630000000     0.176040000000     0.0482558  
H109     H      0.411060000000     0.418130000000     0.136420000000     0.0482329  
H110     H      0.411240000000     0.417500000000     0.083310000000     0.0339909  
H111     H      0.551350000000     0.557530000000     0.083190000000     0.0339728  
H112     H      0.551670000000     0.557160000000     0.136310000000     0.0481897  
H113     H      0.551340000000     0.057260000000     0.507860000000     0.0481973  
H114     H      0.551720000000     0.056860000000     0.560980000000     0.0338524  
H115     H      0.411170000000     0.917280000000     0.560830000000     0.033837   
H116     H      0.411780000000     0.917160000000     0.507720000000     0.0482218  
H117     H      0.481950000000     0.917610000000     0.468040000000     0.0481925  
H118     H      0.482700000000     0.918030000000     0.414920000000     0.0338988  
H119     H      0.480490000000     0.056970000000     0.415110000000     0.0338862  
H120     H      0.481250000000     0.057070000000     0.468220000000     0.0482499  
H121     H      0.411140000000     0.917490000000     0.135140000000     0.048241   
H122     H      0.411230000000     0.916920000000     0.082020000000     0.0339977  
H123     H      0.549880000000     0.058360000000     0.081880000000     0.0340086  
H124     H      0.550330000000     0.057940000000     0.134990000000     0.0482784  
H125     H      0.550770000000     0.987650000000     0.174590000000     0.0481342  
H126     H      0.550720000000     0.986900000000     0.227710000000     0.0338272  
H127     H      0.411500000000     0.988620000000     0.227950000000     0.0337947  
H128     H      0.411020000000     0.987840000000     0.174830000000     0.0481584  
H129     H      0.059930000000     0.509600000000     0.467790000000     0.046399   
H130     H      0.059010000000     0.507410000000     0.415110000000     0.0323524  
H131     H      0.903680000000     0.467690000000     0.415060000000     0.0323684  
H132     H      0.902600000000     0.465200000000     0.467740000000     0.0463906  
H133     H      0.924430000000     0.509050000000     0.509610000000     0.0463703  
H134     H      0.923030000000     0.506550000000     0.562290000000     0.0323036  
H135     H      0.039200000000     0.467620000000     0.562240000000     0.0323135  
H136     H      0.037950000000     0.465450000000     0.509560000000     0.0463983  
H137     H      0.661940000000     0.245550000000     0.335520000000     0.0463336  
H138     H      0.582940000000     0.166780000000     0.334780000000     0.0349093  
H139     H      0.660570000000     0.089390000000     0.308120000000     0.0348934  
H140     H      0.739340000000     0.168400000000     0.307610000000     0.0463625  
H141     H      0.800010000000     0.230440000000     0.337960000000     0.0465151  
H142     H      0.879050000000     0.309160000000     0.337460000000     0.0351831  
H143     H      0.802960000000     0.385460000000     0.306130000000     0.0352096  
H144     H      0.724220000000     0.306440000000     0.305390000000     0.0465167  
H145     H      0.162820000000     0.744820000000     0.338120000000     0.046516   
H146     H      0.083780000000     0.666090000000     0.337610000000     0.0352815  
H147     H      0.159860000000     0.589890000000     0.306090000000     0.0352234  
H148     H      0.238580000000     0.668920000000     0.305370000000     0.0465386  
H149     H      0.300920000000     0.729770000000     0.335470000000     0.0463544  
H150     H      0.379910000000     0.808540000000     0.334720000000     0.0348841  
H151     H      0.302180000000     0.885950000000     0.308310000000     0.0347961  
H152     H      0.223420000000     0.806940000000     0.307810000000     0.0463555  
H153     H      0.959570000000     0.544310000000     0.134170000000     0.0464986  
H154     H      0.961850000000     0.545550000000     0.081490000000     0.0325853  
H155     H      0.000820000000     0.429420000000     0.081540000000     0.0329707  
H156     H      0.003210000000     0.430830000000     0.134220000000     0.0468938  
H157     H      0.959180000000     0.408960000000     0.176040000000     0.0465075  
H158     H      0.961540000000     0.410000000000     0.228710000000     0.0324849  
H159     H      0.001300000000     0.565300000000     0.228670000000     0.0328318  
H160     H      0.003610000000     0.566250000000     0.175990000000     0.0468797  
H161     H      0.051180000000     0.057400000000     0.507960000000     0.0481323  
H162     H      0.051520000000     0.056970000000     0.561080000000     0.033982   
H163     H      0.911210000000     0.917150000000     0.560890000000     0.0339642  
H164     H      0.911870000000     0.917060000000     0.507770000000     0.0480807  
H165     H      0.981200000000     0.917280000000     0.468020000000     0.0480815  
H166     H      0.981990000000     0.917720000000     0.414910000000     0.0338721  
H167     H      0.981300000000     0.057420000000     0.415100000000     0.0338991  
H168     H      0.982020000000     0.057500000000     0.468220000000     0.0480754  
H169     H      0.722720000000     0.808650000000     0.307800000000     0.0464419  
H170     H      0.801880000000     0.887380000000     0.308090000000     0.0346911  
H171     H      0.878480000000     0.809320000000     0.335420000000     0.0347123  
H172     H      0.799200000000     0.730980000000     0.336400000000     0.0463193  
H173     H      0.737590000000     0.670420000000     0.306140000000     0.046309   
H174     H      0.659160000000     0.591330000000     0.307050000000     0.0348029  
H175     H      0.582180000000     0.667320000000     0.337390000000     0.0351281  
H176     H      0.661130000000     0.746370000000     0.337750000000     0.0465306  
H177     H      0.301900000000     0.229100000000     0.337600000000     0.0466079  
H178     H      0.380870000000     0.308140000000     0.337240000000     0.0351468  
H179     H      0.303860000000     0.384230000000     0.307120000000     0.0348185  
H180     H      0.225420000000     0.305150000000     0.306210000000     0.0463954  
H181     H      0.163870000000     0.244550000000     0.336500000000     0.0463267  
H182     H      0.084580000000     0.166220000000     0.335520000000     0.0348653  
H183     H      0.161060000000     0.088180000000     0.307920000000     0.0348407  
H184     H      0.240240000000     0.166900000000     0.307620000000     0.0464508  
H185     H      0.911410000000     0.917480000000     0.134900000000     0.0480455  
H186     H      0.911480000000     0.916850000000     0.081770000000     0.0339377  
H187     H      0.049790000000     0.058600000000     0.081580000000     0.0339496  
H188     H      0.050290000000     0.058200000000     0.134710000000     0.048092   
H189     H      0.050520000000     0.987060000000     0.174390000000     0.0480093  
H190     H      0.050450000000     0.986290000000     0.227520000000     0.0337754  
H191     H      0.912020000000     0.989520000000     0.227760000000     0.0337638  
H192     H      0.911530000000     0.988720000000     0.174630000000     0.0480151  
O1       O      0.002580000000     0.967200000000     0.277320000000    -0.384983   
O2       O      0.001440000000     0.965720000000     0.365230000000    -0.384862   
O3       O      0.935810000000     0.901230000000     0.321160000000    -0.386404   
O4       O      0.068210000000     0.031700000000     0.321440000000    -0.385693   
O5       O      0.027170000000     0.074320000000     0.321260000000    -0.385942   
O6       O      0.894770000000     0.943850000000     0.321570000000    -0.386186   
O7       O      0.961730000000     0.009680000000     0.365340000000    -0.38485    
O8       O      0.960200000000     0.008520000000     0.277430000000    -0.384922   
O9       O      0.962640000000     0.510690000000     0.278010000000    -0.385858   
O10      O      0.958390000000     0.506430000000     0.365770000000    -0.385976   
O11      O      0.026250000000     0.574220000000     0.323160000000    -0.386008   
O12      O      0.894830000000     0.442870000000     0.320620000000    -0.38622    
O13      O      0.936580000000     0.401080000000     0.323120000000    -0.38657    
O14      O      0.068010000000     0.532430000000     0.320640000000    -0.386212   
O15      O      0.004400000000     0.468820000000     0.365770000000    -0.385854   
O16      O      0.000230000000     0.464650000000     0.278000000000    -0.385571   
O17      O      0.501780000000     0.966030000000     0.365290000000    -0.385848   
O18      O      0.502900000000     0.967500000000     0.277440000000    -0.385768   
O19      O      0.568040000000     0.032510000000     0.321510000000    -0.385894   
O20      O      0.436630000000     0.901040000000     0.321230000000    -0.386159   
O21      O      0.394750000000     0.942830000000     0.321660000000    -0.386399   
O22      O      0.526160000000     0.074300000000     0.321310000000    -0.386126   
O23      O      0.459660000000     0.007960000000     0.277560000000    -0.385572   
O24      O      0.461230000000     0.009170000000     0.365400000000    -0.38568    
O25      O      0.458750000000     0.506760000000     0.366660000000    -0.385727   
O26      O      0.460210000000     0.508330000000     0.278810000000    -0.385802   
O27      O      0.394920000000     0.441650000000     0.322130000000    -0.387284   
O28      O      0.525020000000     0.574380000000     0.323280000000    -0.385128   
O29      O      0.568120000000     0.533850000000     0.322120000000    -0.387309   
O30      O      0.438020000000     0.401120000000     0.323230000000    -0.385103   
O31      O      0.502830000000     0.467240000000     0.278790000000    -0.38591    
O32      O      0.504290000000     0.468660000000     0.366640000000    -0.385667   
O33      O      0.959360000000     0.945730000000     0.031990000000    -0.384393   
O34      O      0.960550000000     0.945460000000     0.944080000000    -0.385056   
O35      O      0.026210000000     0.946700000000     0.988170000000    -0.386106   
O36      O      0.893690000000     0.944520000000     0.987880000000    -0.386144   
O37      O      0.934600000000     0.028170000000     0.988090000000    -0.386342   
O38      O      0.067120000000     0.030340000000     0.987770000000    -0.386031   
O39      O      0.000110000000     0.029110000000     0.943990000000    -0.38456    
O40      O      0.001620000000     0.029420000000     0.031900000000    -0.383971   
O41      O      0.000210000000     0.529190000000     0.032180000000    -0.384941   
O42      O      0.001600000000     0.529020000000     0.944380000000    -0.386125   
O43      O      0.934900000000     0.527570000000     0.987700000000    -0.387705   
O44      O      0.067830000000     0.530590000000     0.988830000000    -0.385386   
O45      O      0.027460000000     0.446970000000     0.987750000000    -0.387343   
O46      O      0.894540000000     0.443950000000     0.988910000000    -0.385269   
O47      O      0.960640000000     0.445320000000     0.944440000000    -0.386359   
O48      O      0.962280000000     0.445550000000     0.032240000000    -0.385134   
O49      O      0.501810000000     0.029390000000     0.032260000000    -0.384776   
O50      O      0.503230000000     0.029190000000     0.944410000000    -0.385044   
O51      O      0.437040000000     0.030710000000     0.987770000000    -0.384878   
O52      O      0.567010000000     0.027810000000     0.988930000000    -0.387302   
O53      O      0.523790000000     0.944190000000     0.987850000000    -0.385126   
O54      O      0.393830000000     0.947100000000     0.988960000000    -0.387459   
O55      O      0.457570000000     0.945550000000     0.944460000000    -0.385285   
O56      O      0.459080000000     0.945690000000     0.032310000000    -0.384977   
O57      O      0.459170000000     0.445570000000     0.033620000000    -0.385124   
O58      O      0.460370000000     0.445330000000     0.945770000000    -0.385858   
O59      O      0.524930000000     0.444320000000     0.989850000000    -0.386122   
O60      O      0.394640000000     0.446600000000     0.989550000000    -0.386459   
O61      O      0.437450000000     0.530250000000     0.989770000000    -0.386101   
O62      O      0.567740000000     0.527960000000     0.989500000000    -0.386551   
O63      O      0.501920000000     0.529020000000     0.945710000000    -0.385861   
O64      O      0.503300000000     0.529220000000     0.033550000000    -0.385214   
O65      O      0.940270000000     0.900350000000     0.654770000000    -0.385957   
O66      O      0.938080000000     0.030690000000     0.654420000000    -0.385518   
O67      O      0.939340000000     0.964910000000     0.610650000000    -0.3851     
O68      O      0.938980000000     0.966120000000     0.698560000000    -0.385212   
O69      O      0.022690000000     0.007590000000     0.698670000000    -0.384705   
O70      O      0.023010000000     0.009000000000     0.610760000000    -0.384706   
O71      O      0.021740000000     0.073450000000     0.654830000000    -0.385783   
O72      O      0.023930000000     0.943110000000     0.654580000000    -0.385824   
O73      O      0.937750000000     0.400270000000     0.654880000000    -0.385067   
O74      O      0.940670000000     0.533140000000     0.656080000000    -0.387288   
O75      O      0.939240000000     0.467990000000     0.611570000000    -0.386201   
O76      O      0.939130000000     0.466360000000     0.699370000000    -0.386311   
O77      O      0.022860000000     0.507350000000     0.699390000000    -0.386109   
O78      O      0.022890000000     0.505960000000     0.611590000000    -0.385871   
O79      O      0.024300000000     0.573550000000     0.654960000000    -0.384884   
O80      O      0.021390000000     0.440680000000     0.656050000000    -0.387093   
O81      O      0.441940000000     0.900490000000     0.653920000000    -0.387065   
O82      O      0.436800000000     0.029310000000     0.654960000000    -0.384466   
O83      O      0.439450000000     0.965140000000     0.610530000000    -0.385735   
O84      O      0.439240000000     0.963680000000     0.698380000000    -0.385497   
O85      O      0.522820000000     0.010230000000     0.698460000000    -0.385283   
O86      O      0.523150000000     0.008850000000     0.610610000000    -0.385482   
O87      O      0.520400000000     0.073460000000     0.653930000000    -0.387205   
O88      O      0.525530000000     0.944630000000     0.655100000000    -0.384901   
O89      O      0.436830000000     0.400290000000     0.656010000000    -0.384648   
O90      O      0.441970000000     0.534250000000     0.657180000000    -0.387193   
O91      O      0.439460000000     0.468560000000     0.612660000000    -0.38559    
O92      O      0.439310000000     0.466940000000     0.700510000000    -0.385918   
O93      O      0.523000000000     0.506890000000     0.700540000000    -0.385878   
O94      O      0.523040000000     0.505570000000     0.612680000000    -0.385627   
O95      O      0.525570000000     0.573690000000     0.656110000000    -0.384611   
O96      O      0.520430000000     0.439720000000     0.657150000000    -0.387189   


