data_structure

_audit_creation_method RASPA-1.0
_audit_creation_date 2023-5-22
_audit_author_name 'Poobodin Mano'

_cell_length_a    52.5586
_cell_length_b    52.4367
_cell_length_c    53.9834
_cell_angle_alpha 89.9959
_cell_angle_beta  89.9977
_cell_angle_gamma 90.0075
_cell_volume      148778

_symmetry_cell_setting          triclinic
_symmetry_space_group_name_Hall 'P 1'
_symmetry_space_group_name_H-M  'P 1'
_symmetry_Int_Tables_number     1

_symmetry_equiv_pos_as_xyz 'x,y,z'

loop_
_atom_site_label
_atom_site_type_symbol
_atom_site_fract_x
_atom_site_fract_y
_atom_site_fract_z
_atom_site_charge
C1       C      0.866570000000     0.449770000000     0.805180000000     0.356018   
C2       C      0.816540000000     0.521630000000     0.854630000000     0.356813   
C3       C      0.866160000000     0.520970000000     0.803930000000     0.3561     
C4       C      0.816920000000     0.450450000000     0.855960000000     0.355986   
C5       C      0.718670000000     0.636550000000     0.970180000000     0.356688   
C6       C      0.668300000000     0.686860000000     0.040030000000     0.357006   
C7       C      0.719070000000     0.635930000000     0.039490000000     0.355351   
C8       C      0.667910000000     0.687420000000     0.970810000000     0.355517   
C9       C      0.553590000000     0.787970000000     0.857080000000     0.355687   
C10      C      0.481720000000     0.835390000000     0.805270000000     0.355608   
C11      C      0.482550000000     0.785520000000     0.855760000000     0.357013   
C12      C      0.552730000000     0.837900000000     0.806550000000     0.356736   
C13      C      0.668820000000     0.020370000000     0.705230000000     0.355961   
C14      C      0.716900000000     0.949240000000     0.652920000000     0.355788   
C15      C      0.666520000000     0.949340000000     0.703180000000     0.356659   
C16      C      0.718910000000     0.020400000000     0.655100000000     0.357533   
C17      C      0.052150000000     0.634750000000     0.704340000000     0.357238   
C18      C      0.982000000000     0.682760000000     0.651090000000     0.356696   
C19      C      0.981020000000     0.633230000000     0.701850000000     0.355931   
C20      C      0.053010000000     0.684340000000     0.653650000000     0.35589    
C21      C      0.868350000000     0.784380000000     0.469240000000     0.356228   
C22      C      0.818030000000     0.835880000000     0.538510000000     0.35633    
C23      C      0.869210000000     0.785140000000     0.538430000000     0.356811   
C24      C      0.817450000000     0.835090000000     0.469190000000     0.35672    
C25      C      0.554890000000     0.132750000000     0.808090000000     0.356029   
C26      C      0.482690000000     0.182820000000     0.857050000000     0.356091   
C27      C      0.483670000000     0.133050000000     0.806450000000     0.356934   
C28      C      0.553680000000     0.182420000000     0.858710000000     0.357487   
C29      C      0.719160000000     0.333860000000     0.039920000000     0.358104   
C30      C      0.666430000000     0.285360000000     0.970620000000     0.35742    
C31      C      0.717400000000     0.336100000000     0.970690000000     0.356122   
C32      C      0.668250000000     0.283190000000     0.039740000000     0.356058   
C33      C      0.820120000000     0.520850000000     0.152160000000     0.355811   
C34      C      0.868750000000     0.448770000000     0.202740000000     0.356054   
C35      C      0.819090000000     0.449530000000     0.152480000000     0.357935   
C36      C      0.869910000000     0.520150000000     0.202660000000     0.356731   
C37      C      0.982190000000     0.683120000000     0.355780000000     0.356004   
C38      C      0.054660000000     0.634840000000     0.305540000000     0.356224   
C39      C      0.053230000000     0.684550000000     0.356010000000     0.357889   
C40      C      0.983450000000     0.633390000000     0.305150000000     0.356743   
C41      C      0.166340000000     0.784860000000     0.470920000000     0.35788    
C42      C      0.217300000000     0.836880000000     0.539150000000     0.356865   
C43      C      0.166440000000     0.786170000000     0.540280000000     0.356105   
C44      C      0.217040000000     0.835560000000     0.469740000000     0.355993   
C45      C      0.369550000000     0.949260000000     0.702210000000     0.356049   
C46      C      0.320670000000     0.021900000000     0.652600000000     0.356327   
C47      C      0.370490000000     0.020680000000     0.702900000000     0.357139   
C48      C      0.319690000000     0.950550000000     0.651880000000     0.357004   
C49      C      0.663610000000     0.019960000000     0.307640000000     0.356855   
C50      C      0.714930000000     0.948980000000     0.357000000000     0.356537   
C51      C      0.664980000000     0.948760000000     0.306810000000     0.356506   
C52      C      0.713790000000     0.020340000000     0.357840000000     0.356149   
C53      C      0.551810000000     0.785440000000     0.153520000000     0.357091   
C54      C      0.481200000000     0.835740000000     0.204110000000     0.356789   
C55      C      0.480710000000     0.785830000000     0.153670000000     0.356061   
C56      C      0.552300000000     0.835330000000     0.203890000000     0.355861   
C57      C      0.166120000000     0.520620000000     0.805570000000     0.356828   
C58      C      0.215770000000     0.449620000000     0.856490000000     0.356269   
C59      C      0.165640000000     0.449320000000     0.806430000000     0.356259   
C60      C      0.216230000000     0.520970000000     0.855650000000     0.356483   
C61      C      0.368100000000     0.684370000000     0.039380000000     0.355883   
C62      C      0.318060000000     0.634080000000     0.969150000000     0.356107   
C63      C      0.368670000000     0.684930000000     0.970030000000     0.357117   
C64      C      0.317480000000     0.633480000000     0.038510000000     0.356779   
C65      C      0.167300000000     0.521030000000     0.203190000000     0.355871   
C66      C      0.214470000000     0.448230000000     0.152290000000     0.355847   
C67      C      0.164380000000     0.449810000000     0.202720000000     0.356108   
C68      C      0.217130000000     0.519390000000     0.152920000000     0.356736   
C69      C      0.368350000000     0.284580000000     0.969760000000     0.356107   
C70      C      0.316510000000     0.335170000000     0.038610000000     0.356338   
C71      C      0.367830000000     0.284770000000     0.039200000000     0.355988   
C72      C      0.317140000000     0.335080000000     0.969340000000     0.355995   
C73      C      0.482040000000     0.183570000000     0.152530000000     0.356134   
C74      C      0.552250000000     0.132070000000     0.202710000000     0.356758   
C75      C      0.553340000000     0.181710000000     0.152010000000     0.356242   
C76      C      0.481350000000     0.134020000000     0.203450000000     0.356083   
C77      C      0.981010000000     0.336550000000     0.703450000000     0.355859   
C78      C      0.052390000000     0.286500000000     0.653460000000     0.356745   
C79      C      0.052160000000     0.336010000000     0.704200000000     0.356552   
C80      C      0.981280000000     0.286980000000     0.652610000000     0.356383   
C81      C      0.816010000000     0.134290000000     0.470510000000     0.355793   
C82      C      0.867860000000     0.185720000000     0.538690000000     0.356324   
C83      C      0.817150000000     0.134940000000     0.539800000000     0.357165   
C84      C      0.866810000000     0.185120000000     0.469400000000     0.357143   
C85      C      0.217300000000     0.134220000000     0.471090000000     0.355981   
C86      C      0.168080000000     0.187190000000     0.539940000000     0.356905   
C87      C      0.218680000000     0.136230000000     0.540270000000     0.356061   
C88      C      0.166580000000     0.185500000000     0.470720000000     0.355927   
C89      C      0.319130000000     0.020450000000     0.358510000000     0.356173   
C90      C      0.367480000000     0.950370000000     0.305270000000     0.356774   
C91      C      0.318250000000     0.949200000000     0.356120000000     0.355919   
C92      C      0.368450000000     0.021600000000     0.307430000000     0.355577   
C93      C      0.981130000000     0.334770000000     0.305310000000     0.355742   
C94      C      0.052660000000     0.286500000000     0.356810000000     0.355637   
C95      C      0.052140000000     0.337070000000     0.306600000000     0.356302   
C96      C      0.981660000000     0.284530000000     0.355290000000     0.357129   
C97      C      0.143440000000     0.239020000000     0.429180000000    -0.0662405  
C98      C      0.121260000000     0.228430000000     0.418930000000     0.0225578  
C99      C      0.114550000000     0.203290000000     0.425180000000    -0.0658859  
C100     C      0.129420000000     0.189220000000     0.441740000000     0.0231763  
C101     C      0.151450000000     0.199910000000     0.452260000000    -0.104886   
C102     C      0.158430000000     0.224880000000     0.445580000000     0.0228844  
C103     C      0.104770000000     0.243760000000     0.402300000000     0.0225052  
C104     C      0.098500000000     0.269060000000     0.408370000000    -0.0658003  
C105     C      0.081930000000     0.283100000000     0.393400000000     0.0231138  
C106     C      0.071400000000     0.272210000000     0.371920000000    -0.104757   
C107     C      0.078170000000     0.247100000000     0.365550000000     0.0227995  
C108     C      0.094580000000     0.233000000000     0.380640000000    -0.0662098  
C109     C      0.294100000000     0.054940000000     0.415020000000    -0.0665983  
C110     C      0.276440000000     0.071810000000     0.404510000000     0.0225945  
C111     C      0.273400000000     0.072420000000     0.378700000000    -0.066543   
C112     C      0.287380000000     0.055810000000     0.363630000000     0.0237548  
C113     C      0.305020000000     0.038790000000     0.374140000000    -0.105217   
C114     C      0.308490000000     0.038780000000     0.399960000000     0.0238785  
C115     C      0.260620000000     0.088040000000     0.420670000000     0.0226172  
C116     C      0.243430000000     0.076760000000     0.437240000000    -0.0667911  
C117     C      0.228880000000     0.091880000000     0.453130000000     0.0240562  
C118     C      0.231680000000     0.118540000000     0.453140000000    -0.105304   
C119     C      0.248900000000     0.129830000000     0.436480000000     0.0236805  
C120     C      0.263050000000     0.114690000000     0.420140000000    -0.066525   
C121     C      0.907960000000     0.200740000000     0.414000000000    -0.0655477  
C122     C      0.911670000000     0.227230000000     0.416760000000     0.0230777  
C123     C      0.899460000000     0.239650000000     0.436660000000    -0.0654019  
C124     C      0.884170000000     0.226060000000     0.453210000000     0.0250971  
C125     C      0.881340000000     0.199600000000     0.450800000000    -0.106241   
C126     C      0.893340000000     0.187040000000     0.431080000000     0.0252027  
C127     C      0.928790000000     0.241680000000     0.399590000000     0.0231255  
C128     C      0.949770000000     0.229650000000     0.388210000000    -0.0654167  
C129     C      0.966370000000     0.243410000000     0.373010000000     0.025122   
C130     C      0.962890000000     0.269650000000     0.369460000000    -0.106212   
C131     C      0.942030000000     0.281770000000     0.380520000000     0.0254322  
C132     C      0.924910000000     0.267880000000     0.395030000000    -0.0655915  
C133     C      0.935180000000     0.269670000000     0.601260000000    -0.0658957  
C134     C      0.928880000000     0.244400000000     0.607360000000     0.0226549  
C135     C      0.939080000000     0.233620000000     0.629020000000    -0.0662036  
C136     C      0.955610000000     0.247650000000     0.644030000000     0.0231752  
C137     C      0.962460000000     0.272720000000     0.637600000000    -0.105078   
C138     C      0.951860000000     0.283660000000     0.616170000000     0.0233757  
C139     C      0.912520000000     0.229040000000     0.590660000000     0.0227315  
C140     C      0.890420000000     0.239560000000     0.580160000000    -0.0662824  
C141     C      0.875630000000     0.225340000000     0.563650000000     0.0232485  
C142     C      0.882760000000     0.200380000000     0.557110000000    -0.105351   
C143     C      0.904710000000     0.189790000000     0.567870000000     0.0235134  
C144     C      0.919370000000     0.203930000000     0.584510000000    -0.0661026  
C145     C      0.085350000000     0.232100000000     0.620780000000    -0.0654097  
C146     C      0.105740000000     0.244510000000     0.608790000000     0.022987   
C147     C      0.108720000000     0.270970000000     0.612550000000    -0.0654363  
C148     C      0.091400000000     0.284640000000     0.627080000000     0.0249092  
C149     C      0.071230000000     0.272070000000     0.638890000000    -0.105879   
C150     C      0.068580000000     0.245650000000     0.635950000000     0.0248636  
C151     C      0.123200000000     0.230070000000     0.591930000000     0.0230395  
C152     C      0.127760000000     0.203830000000     0.595540000000    -0.0654602  
C153     C      0.142470000000     0.189940000000     0.578710000000     0.0252742  
C154     C      0.153770000000     0.202100000000     0.558390000000    -0.105956   
C155     C      0.150270000000     0.228380000000     0.555170000000     0.0249433  
C156     C      0.134840000000     0.242150000000     0.571500000000    -0.0653252  
C157     C      0.389590000000     0.064710000000     0.254940000000    -0.0662597  
C158     C      0.412670000000     0.074420000000     0.264060000000     0.0224934  
C159     C      0.420500000000     0.067620000000     0.288060000000    -0.0658136  
C160     C      0.405920000000     0.050860000000     0.302370000000     0.0230037  
C161     C      0.383100000000     0.040680000000     0.293030000000    -0.104694   
C162     C      0.374920000000     0.048100000000     0.269290000000     0.0227615  
C163     C      0.429080000000     0.090670000000     0.248190000000     0.0225593  
C164     C      0.433560000000     0.083930000000     0.223370000000    -0.0661053  
C165     C      0.450140000000     0.098290000000     0.208730000000     0.0231757  
C166     C      0.462500000000     0.119840000000     0.218510000000    -0.104971   
C167     C      0.457500000000     0.126960000000     0.243160000000     0.0231112  
C168     C      0.441060000000     0.112450000000     0.257870000000    -0.0660802  
C169     C      0.434880000000     0.201330000000     0.102270000000    -0.0659758  
C170     C      0.429030000000     0.226710000000     0.108340000000     0.0225578  
C171     C      0.440000000000     0.237520000000     0.129650000000    -0.0660143  
C172     C      0.456790000000     0.223370000000     0.144330000000     0.0229235  
C173     C      0.463100000000     0.198160000000     0.137920000000    -0.104683   
C174     C      0.451750000000     0.187240000000     0.116840000000     0.0232278  
C175     C      0.412390000000     0.242110000000     0.091870000000     0.0225422  
C176     C      0.419190000000     0.267180000000     0.085500000000    -0.0659614  
C177     C      0.404490000000     0.281150000000     0.068730000000     0.0230905  
C178     C      0.382570000000     0.270410000000     0.058020000000    -0.104578   
C179     C      0.375410000000     0.245550000000     0.064880000000     0.0228632  
C180     C      0.390210000000     0.231530000000     0.081560000000    -0.0660153  
C181     C      0.231930000000     0.402420000000     0.100610000000    -0.065883   
C182     C      0.256920000000     0.395590000000     0.107110000000     0.0225072  
C183     C      0.267320000000     0.405190000000     0.129190000000    -0.0662483  
C184     C      0.253270000000     0.421720000000     0.144180000000     0.0228524  
C185     C      0.228530000000     0.429170000000     0.137340000000    -0.104918   
C186     C      0.217920000000     0.419100000000     0.115520000000     0.0231854  
C187     C      0.272450000000     0.379370000000     0.090400000000     0.0227222  
C188     C      0.261980000000     0.357570000000     0.079220000000    -0.0662263  
C189     C      0.276440000000     0.342900000000     0.062790000000     0.0232434  
C190     C      0.301600000000     0.349870000000     0.057020000000    -0.104953   
C191     C      0.312120000000     0.371530000000     0.068440000000     0.0234608  
C192     C      0.297740000000     0.386060000000     0.085000000000    -0.0661111  
C193     C      0.085930000000     0.394410000000     0.279690000000    -0.0667815  
C194     C      0.102790000000     0.383000000000     0.262880000000     0.0226314  
C195     C      0.103690000000     0.356320000000     0.261100000000    -0.0664852  
C196     C      0.087350000000     0.341260000000     0.275440000000     0.0237748  
C197     C      0.070330000000     0.352670000000     0.292210000000    -0.105433   
C198     C      0.070060000000     0.379380000000     0.294430000000     0.0240188  
C199     C      0.118780000000     0.399110000000     0.246730000000     0.0226563  
C200     C      0.107300000000     0.416090000000     0.230050000000    -0.066711   
C201     C      0.122210000000     0.432020000000     0.215250000000     0.0240459  
C202     C      0.148870000000     0.431690000000     0.217280000000    -0.10546    
C203     C      0.160350000000     0.414590000000     0.233950000000     0.0238187  
C204     C      0.145400000000     0.398190000000     0.248350000000    -0.066558   
C205     C      0.272150000000     0.550440000000     0.119560000000    -0.0653846  
C206     C      0.260340000000     0.571400000000     0.107890000000     0.023039   
C207     C      0.234210000000     0.575520000000     0.112310000000    -0.0654796  
C208     C      0.220190000000     0.558660000000     0.127020000000     0.0251439  
C209     C      0.232120000000     0.537840000000     0.138420000000    -0.105955   
C210     C      0.258270000000     0.534120000000     0.134950000000     0.0249835  
C211     C      0.274970000000     0.588340000000     0.090660000000     0.0230722  
C212     C      0.301390000000     0.591950000000     0.093590000000    -0.0654866  
C213     C      0.315230000000     0.606570000000     0.076610000000     0.0249501  
C214     C      0.302870000000     0.618660000000     0.056820000000    -0.105917   
C215     C      0.276500000000     0.615860000000     0.054190000000     0.0249949  
C216     C      0.262760000000     0.600560000000     0.070640000000    -0.0654753  
C217     C      0.113950000000     0.402630000000     0.787850000000    -0.0659604  
C218     C      0.121370000000     0.396090000000     0.763670000000     0.0226615  
C219     C      0.144070000000     0.406250000000     0.754100000000    -0.0662506  
C220     C      0.158770000000     0.423040000000     0.768210000000     0.0231148  
C221     C      0.150980000000     0.430180000000     0.792150000000    -0.105018   
C222     C      0.128550000000     0.419560000000     0.801920000000     0.0233457  
C223     C      0.104850000000     0.379710000000     0.748070000000     0.0227178  
C224     C      0.093400000000     0.357690000000     0.757880000000    -0.0661889  
C225     C      0.076770000000     0.343090000000     0.743460000000     0.0233031  
C226     C      0.071070000000     0.350370000000     0.719000000000    -0.105286   
C227     C      0.082890000000     0.372150000000     0.709100000000     0.0236367  
C228     C      0.099640000000     0.386600000000     0.723440000000    -0.0661381  
C229     C      0.234240000000     0.568260000000     0.905720000000    -0.0661176  
C230     C      0.259630000000     0.573840000000     0.899660000000     0.0227297  
C231     C      0.270300000000     0.562800000000     0.878330000000    -0.0661485  
C232     C      0.256020000000     0.546150000000     0.863640000000     0.0233129  
C233     C      0.230830000000     0.540020000000     0.870100000000    -0.105151   
C234     C      0.220030000000     0.551490000000     0.891160000000     0.023539   
C235     C      0.275180000000     0.590220000000     0.916190000000     0.0226444  
C236     C      0.264970000000     0.612670000000     0.926360000000    -0.066196   
C237     C      0.279100000000     0.627230000000     0.943130000000     0.0231143  
C238     C      0.303670000000     0.619550000000     0.950230000000    -0.105091   
C239     C      0.314050000000     0.597360000000     0.939660000000     0.0233006  
C240     C      0.299990000000     0.582900000000     0.922770000000    -0.0660282  
C241     C      0.233350000000     0.402780000000     0.907230000000    -0.0658589  
C242     C      0.258490000000     0.396410000000     0.900850000000     0.0226195  
C243     C      0.269090000000     0.406860000000     0.879210000000    -0.0660638  
C244     C      0.255030000000     0.423680000000     0.864510000000     0.0231864  
C245     C      0.230110000000     0.430580000000     0.871220000000    -0.104743   
C246     C      0.219350000000     0.419730000000     0.892620000000     0.0232682  
C247     C      0.273910000000     0.379790000000     0.917290000000     0.0226721  
C248     C      0.299090000000     0.386460000000     0.923180000000    -0.0659394  
C249     C      0.313230000000     0.371700000000     0.939750000000     0.0233863  
C250     C      0.302580000000     0.349840000000     0.950710000000    -0.104666   
C251     C      0.277580000000     0.342830000000     0.944360000000     0.0230347  
C252     C      0.263370000000     0.357710000000     0.927900000000    -0.0659968  
C253     C      0.438560000000     0.732160000000     0.130580000000    -0.0662611  
C254     C      0.428100000000     0.742870000000     0.109000000000     0.0226622  
C255     C      0.434160000000     0.768190000000     0.102870000000    -0.0660415  
C256     C      0.450850000000     0.782290000000     0.117630000000     0.0234292  
C257     C      0.461740000000     0.771440000000     0.138960000000    -0.105212   
C258     C      0.455120000000     0.746330000000     0.145460000000     0.0231472  
C259     C      0.411820000000     0.727390000000     0.092320000000     0.0226912  
C260     C      0.418920000000     0.702390000000     0.086020000000    -0.0660673  
C261     C      0.404520000000     0.688300000000     0.069120000000     0.0233722  
C262     C      0.382590000000     0.698830000000     0.058260000000    -0.105178   
C263     C      0.375150000000     0.723630000000     0.065050000000     0.0231455  
C264     C      0.389670000000     0.737790000000     0.081820000000    -0.0662678  
C265     C      0.425320000000     0.877650000000     0.221180000000    -0.0654309  
C266     C      0.428770000000     0.880840000000     0.246910000000     0.0229274  
C267     C      0.449330000000     0.868120000000     0.258300000000    -0.06531    
C268     C      0.465800000000     0.852800000000     0.244470000000     0.0248222  
C269     C      0.462670000000     0.850440000000     0.218790000000    -0.105845   
C270     C      0.442340000000     0.863000000000     0.207240000000     0.0249028  
C271     C      0.411630000000     0.897880000000     0.261670000000     0.023024   
C272     C      0.399750000000     0.919170000000     0.250630000000    -0.06542    
C273     C      0.384580000000     0.935650000000     0.264650000000     0.0249828  
C274     C      0.381580000000     0.931750000000     0.290160000000    -0.106057   
C275     C      0.393150000000     0.910600000000     0.301310000000     0.0252626  
C276     C      0.407590000000     0.893590000000     0.287170000000    -0.065504   
C277     C      0.761730000000     0.111650000000     0.429730000000    -0.0661807  
C278     C      0.772110000000     0.089520000000     0.419080000000     0.022679   
C279     C      0.797260000000     0.082700000000     0.424880000000    -0.0660348  
C280     C      0.811600000000     0.097410000000     0.441320000000     0.0233335  
C281     C      0.801160000000     0.119390000000     0.452220000000    -0.105016   
C282     C      0.776140000000     0.126500000000     0.446050000000     0.0229849  
C283     C      0.756580000000     0.073110000000     0.402560000000     0.0225988  
C284     C      0.731450000000     0.066720000000     0.408940000000    -0.0658273  
C285     C      0.717370000000     0.049950000000     0.394210000000     0.0232658  
C286     C      0.728070000000     0.039320000000     0.372680000000    -0.104842   
C287     C      0.752980000000     0.046270000000     0.365960000000     0.023162   
C288     C      0.767100000000     0.062910000000     0.380780000000    -0.0661686  
C289     C      0.614650000000     0.900910000000     0.287650000000    -0.0661311  
C290     C      0.621580000000     0.895680000000     0.263030000000     0.0226117  
C291     C      0.643570000000     0.907150000000     0.253270000000    -0.0661967  
C292     C      0.658040000000     0.923900000000     0.267670000000     0.0233444  
C293     C      0.650720000000     0.929680000000     0.292090000000    -0.105269   
C294     C      0.629010000000     0.917780000000     0.301990000000     0.0233317  
C295     C      0.605230000000     0.879220000000     0.247320000000     0.0226303  
C296     C      0.594850000000     0.856510000000     0.256750000000    -0.0662958  
C297     C      0.578160000000     0.841900000000     0.242430000000     0.0230937  
C298     C      0.571360000000     0.849790000000     0.218430000000    -0.10518    
C299     C      0.582190000000     0.872230000000     0.208830000000     0.023342   
C300     C      0.598990000000     0.886740000000     0.223090000000    -0.0661263  
C301     C      0.645270000000     0.071490000000     0.261700000000    -0.0667473  
C302     C      0.618650000000     0.071070000000     0.263600000000     0.0227863  
C303     C      0.607010000000     0.054620000000     0.280640000000    -0.0669029  
C304     C      0.621740000000     0.038590000000     0.295480000000     0.0243207  
C305     C      0.648370000000     0.038340000000     0.293150000000    -0.105865   
C306     C      0.660030000000     0.055010000000     0.276180000000     0.0241009  
C307     C      0.602810000000     0.086960000000     0.247190000000     0.0227838  
C308     C      0.603470000000     0.113650000000     0.248850000000    -0.0667354  
C309     C      0.587150000000     0.128470000000     0.234250000000     0.0239761  
C310     C      0.570390000000     0.116770000000     0.217410000000    -0.105832   
C311     C      0.570370000000     0.090050000000     0.215350000000     0.0243837  
C312     C      0.586230000000     0.075280000000     0.230300000000    -0.0669604  
C313     C      0.267850000000     0.065760000000     0.630800000000    -0.066069   
C314     C      0.278160000000     0.075790000000     0.608840000000     0.022584   
C315     C      0.303040000000     0.068930000000     0.602040000000    -0.0659305  
C316     C      0.317030000000     0.051830000000     0.616490000000     0.0231977  
C317     C      0.306500000000     0.041300000000     0.638150000000    -0.104746   
C318     C      0.281880000000     0.048760000000     0.645330000000     0.0230768  
C319     C      0.262580000000     0.092310000000     0.592430000000     0.0225593  
C320     C      0.237180000000     0.085860000000     0.587260000000    -0.0661667  
C321     C      0.222850000000     0.100390000000     0.570670000000     0.0231195  
C322     C      0.233530000000     0.121810000000     0.558940000000    -0.104964   
C323     C      0.258760000000     0.128640000000     0.564560000000     0.022971   
C324     C      0.273160000000     0.113970000000     0.581060000000    -0.065947   
C325     C      0.235670000000     0.888730000000     0.584690000000    -0.0661415  
C326     C      0.260700000000     0.881790000000     0.590840000000     0.0227008  
C327     C      0.271060000000     0.859490000000     0.580520000000    -0.0662241  
C328     C      0.256800000000     0.844630000000     0.564110000000     0.0234097  
C329     C      0.231940000000     0.851860000000     0.557530000000    -0.105218   
C330     C      0.221460000000     0.873980000000     0.568170000000     0.0234449  
C331     C      0.276230000000     0.898280000000     0.607270000000     0.0227697  
C332     C      0.301500000000     0.904190000000     0.601020000000    -0.0662348  
C333     C      0.315730000000     0.920840000000     0.615710000000     0.0236682  
C334     C      0.305060000000     0.931840000000     0.637070000000    -0.105469   
C335     C      0.279960000000     0.925450000000     0.643630000000     0.0234901  
C336     C      0.265670000000     0.908920000000     0.628830000000    -0.0663169  
C337     C      0.264510000000     0.906780000000     0.378630000000    -0.0659888  
C338     C      0.275320000000     0.895600000000     0.399850000000     0.0224622  
C339     C      0.300720000000     0.901240000000     0.405820000000    -0.0660417  
C340     C      0.314790000000     0.918210000000     0.391320000000     0.0229288  
C341     C      0.303820000000     0.929880000000     0.370430000000    -0.104878   
C342     C      0.278640000000     0.923660000000     0.364030000000     0.022964   
C343     C      0.259840000000     0.879170000000     0.416440000000     0.0225908  
C344     C      0.234970000000     0.886370000000     0.422920000000    -0.0661013  
C345     C      0.220960000000     0.871960000000     0.439880000000     0.0231748  
C346     C      0.231440000000     0.849930000000     0.450690000000    -0.104846   
C347     C      0.256080000000     0.842350000000     0.443710000000     0.0230098  
C348     C      0.270160000000     0.856860000000     0.426830000000    -0.0660601  
C349     C      0.108780000000     0.701120000000     0.397370000000    -0.0657547  
C350     C      0.104920000000     0.727400000000     0.401520000000     0.0231593  
C351     C      0.084260000000     0.739400000000     0.389600000000    -0.0657974  
C352     C      0.068030000000     0.725580000000     0.374130000000     0.0255439  
C353     C      0.071530000000     0.699320000000     0.370820000000    -0.106906   
C354     C      0.091990000000     0.687170000000     0.382540000000     0.0255262  
C355     C      0.121790000000     0.742030000000     0.418730000000     0.02319    
C356     C      0.133520000000     0.729930000000     0.439080000000    -0.0657633  
C357     C      0.148660000000     0.743750000000     0.455570000000     0.0255893  
C358     C      0.151760000000     0.770110000000     0.452610000000    -0.106975   
C359     C      0.140220000000     0.782360000000     0.432470000000     0.0256217  
C360     C      0.125780000000     0.768420000000     0.415460000000    -0.0658185  
C361     C      0.117670000000     0.569680000000     0.222130000000    -0.0660281  
C362     C      0.124690000000     0.575030000000     0.246690000000     0.022464   
C363     C      0.146640000000     0.563450000000     0.256460000000    -0.0659218  
C364     C      0.160920000000     0.546440000000     0.242140000000     0.0229265  
C365     C      0.153430000000     0.540500000000     0.217800000000    -0.104879   
C366     C      0.131830000000     0.552580000000     0.207870000000     0.0230164  
C367     C      0.108350000000     0.591540000000     0.262390000000     0.0226581  
C368     C      0.097700000000     0.614080000000     0.252850000000    -0.0661382  
C369     C      0.080790000000     0.628550000000     0.267080000000     0.0231113  
C370     C      0.074030000000     0.620680000000     0.291100000000    -0.105115   
C371     C      0.085200000000     0.598470000000     0.300830000000     0.0233879  
C372     C      0.102210000000     0.584100000000     0.286670000000    -0.0661266  
C373     C      0.921610000000     0.566630000000     0.221590000000    -0.0660736  
C374     C      0.914600000000     0.572460000000     0.246060000000     0.0226985  
C375     C      0.892220000000     0.561780000000     0.255800000000    -0.0661997  
C376     C      0.877380000000     0.545270000000     0.241520000000     0.0234244  
C377     C      0.884720000000     0.538920000000     0.217240000000    -0.105179   
C378     C      0.906880000000     0.549980000000     0.207360000000     0.0235056  
C379     C      0.931130000000     0.588870000000     0.261620000000     0.022744   
C380     C      0.936950000000     0.581750000000     0.286060000000    -0.066139   
C381     C      0.953650000000     0.596390000000     0.300310000000     0.0235929  
C382     C      0.964760000000     0.618590000000     0.290490000000    -0.105218   
C383     C      0.958470000000     0.626020000000     0.266220000000     0.0234774  
C384     C      0.941910000000     0.611270000000     0.251910000000    -0.0662665  
C385     C      0.889220000000     0.405420000000     0.255360000000    -0.0660345  
C386     C      0.911770000000     0.394790000000     0.245900000000     0.0225558  
C387     C      0.919380000000     0.401140000000     0.221720000000    -0.0660005  
C388     C      0.905150000000     0.418280000000     0.207570000000     0.0232059  
C389     C      0.882900000000     0.429390000000     0.217220000000    -0.104855   
C390     C      0.874890000000     0.422470000000     0.241150000000     0.0230077  
C391     C      0.928060000000     0.378230000000     0.261590000000     0.0225462  
C392     C      0.933170000000     0.385010000000     0.286260000000    -0.0660518  
C393     C      0.949980000000     0.370590000000     0.300570000000     0.0231322  
C394     C      0.962000000000     0.348950000000     0.290590000000    -0.104957   
C395     C      0.956330000000     0.341720000000     0.266120000000     0.0230119  
C396     C      0.939610000000     0.356270000000     0.251740000000    -0.0659779  
C397     C      0.736130000000     0.374050000000     0.095480000000    -0.0659219  
C398     C      0.762290000000     0.378550000000     0.091680000000     0.0233276  
C399     C      0.774210000000     0.366870000000     0.071210000000    -0.0657439  
C400     C      0.760350000000     0.351470000000     0.054950000000     0.0255697  
C401     C      0.734140000000     0.348050000000     0.058330000000    -0.107035   
C402     C      0.722140000000     0.359360000000     0.078730000000     0.0258976  
C403     C      0.776810000000     0.396060000000     0.108380000000     0.0232244  
C404     C      0.764570000000     0.416690000000     0.120160000000    -0.0657581  
C405     C      0.778230000000     0.433550000000     0.135130000000     0.0255716  
C406     C      0.804570000000     0.430720000000     0.138040000000    -0.107018   
C407     C      0.816950000000     0.410300000000     0.126430000000     0.0256584  
C408     C      0.803180000000     0.392900000000     0.112110000000    -0.065824   
C409     C      0.618000000000     0.264620000000     0.086670000000    -0.0661747  
C410     C      0.623930000000     0.238940000000     0.091310000000     0.0225006  
C411     C      0.645200000000     0.228100000000     0.079520000000    -0.0659632  
C412     C      0.660020000000     0.242590000000     0.063210000000     0.0229295  
C413     C      0.653720000000     0.268150000000     0.058190000000    -0.104963   
C414     C      0.632660000000     0.279020000000     0.070280000000     0.023206   
C415     C      0.607370000000     0.223450000000     0.107760000000     0.0225567  
C416     C      0.598040000000     0.233730000000     0.130010000000    -0.0662043  
C417     C      0.580970000000     0.219930000000     0.144630000000     0.0230417  
C418     C      0.572730000000     0.195560000000     0.137280000000    -0.104807   
C419     C      0.582570000000     0.185010000000     0.115320000000     0.023052   
C420     C      0.599760000000     0.198790000000     0.100750000000    -0.0658666  
C421     C      0.422040000000     0.067170000000     0.722180000000    -0.06618    
C422     C      0.414710000000     0.073190000000     0.746510000000     0.0228037  
C423     C      0.392150000000     0.062670000000     0.756030000000    -0.0663439  
C424     C      0.377470000000     0.046070000000     0.741670000000     0.0235268  
C425     C      0.385150000000     0.039500000000     0.717550000000    -0.105441   
C426     C      0.407470000000     0.050450000000     0.707880000000     0.023647   
C427     C      0.431180000000     0.089460000000     0.762260000000     0.0227027  
C428     C      0.436560000000     0.082270000000     0.786770000000    -0.0661184  
C429     C      0.453280000000     0.096660000000     0.801220000000     0.0236469  
C430     C      0.464880000000     0.118670000000     0.791530000000    -0.105383   
C431     C      0.459010000000     0.126210000000     0.767200000000     0.0234682  
C432     C      0.442420000000     0.111690000000     0.752680000000    -0.0662118  
C433     C      0.588050000000     0.208280000000     0.914780000000    -0.0671007  
C434     C      0.604630000000     0.226040000000     0.904030000000     0.0229023  
C435     C      0.605140000000     0.228870000000     0.878200000000    -0.0668995  
C436     C      0.588670000000     0.214560000000     0.863320000000     0.0243774  
C437     C      0.571920000000     0.196820000000     0.874090000000    -0.106401   
C438     C      0.572020000000     0.193580000000     0.899930000000     0.0246639  
C439     C      0.620710000000     0.242130000000     0.919970000000     0.0228364  
C440     C      0.609340000000     0.259420000000     0.936400000000    -0.067096   
C441     C      0.624320000000     0.274020000000     0.952340000000     0.0246081  
C442     C      0.650910000000     0.271140000000     0.952500000000    -0.106368   
C443     C      0.662280000000     0.253910000000     0.935890000000     0.0244428  
C444     C      0.647280000000     0.239710000000     0.919530000000    -0.0668882  
C445     C      0.435230000000     0.200570000000     0.907050000000    -0.0659967  
C446     C      0.429680000000     0.226060000000     0.901100000000     0.0225382  
C447     C      0.440830000000     0.236870000000     0.879890000000    -0.0659635  
C448     C      0.457530000000     0.222650000000     0.865200000000     0.0230242  
C449     C      0.463610000000     0.197350000000     0.871520000000    -0.104877   
C450     C      0.452040000000     0.186400000000     0.892470000000     0.0230652  
C451     C      0.413140000000     0.241540000000     0.917570000000     0.0225073  
C452     C      0.390760000000     0.231170000000     0.927650000000    -0.0659815  
C453     C      0.375940000000     0.245310000000     0.944210000000     0.0229698  
C454     C      0.383270000000     0.270090000000     0.951180000000    -0.10461    
C455     C      0.405430000000     0.280610000000     0.940750000000     0.0231051  
C456     C      0.420150000000     0.266520000000     0.924100000000    -0.065822   
C457     C      0.890900000000     0.730170000000     0.428180000000    -0.0659943  
C458     C      0.912530000000     0.740890000000     0.416970000000     0.0225653  
C459     C      0.918970000000     0.766290000000     0.422420000000    -0.0660348  
C460     C      0.904410000000     0.780490000000     0.439100000000     0.0231466  
C461     C      0.882970000000     0.769670000000     0.450620000000    -0.104951   
C462     C      0.876210000000     0.744430000000     0.444750000000     0.0230989  
C463     C      0.928960000000     0.725460000000     0.400370000000     0.0225764  
C464     C      0.935800000000     0.700440000000     0.406890000000    -0.0659103  
C465     C      0.952680000000     0.686500000000     0.392170000000     0.0232472  
C466     C      0.963000000000     0.697220000000     0.370500000000    -0.104942   
C467     C      0.955570000000     0.722000000000     0.363620000000     0.0229734  
C468     C      0.938810000000     0.735980000000     0.378430000000    -0.0661869  
C469     C      0.799000000000     0.886090000000     0.422830000000    -0.066064   
C470     C      0.773940000000     0.879100000000     0.416840000000     0.022738   
C471     C      0.763630000000     0.856890000000     0.427420000000    -0.0661607  
C472     C      0.777930000000     0.842240000000     0.444000000000     0.0232653  
C473     C      0.802780000000     0.849610000000     0.450480000000    -0.105137   
C474     C      0.813230000000     0.871560000000     0.439490000000     0.0236136  
C475     C      0.758320000000     0.895620000000     0.400500000000     0.0226565  
C476     C      0.733130000000     0.901610000000     0.406980000000    -0.0659315  
C477     C      0.718920000000     0.918570000000     0.392610000000     0.0234155  
C478     C      0.729540000000     0.929850000000     0.371350000000    -0.10492    
C479     C      0.754520000000     0.923330000000     0.364500000000     0.0231747  
C480     C      0.768780000000     0.906470000000     0.378980000000    -0.0661162  
C481     C      0.930090000000     0.728460000000     0.630940000000    -0.0667311  
C482     C      0.930640000000     0.725330000000     0.605140000000     0.0227105  
C483     C      0.947380000000     0.707560000000     0.594630000000    -0.0668664  
C484     C      0.963530000000     0.693180000000     0.609690000000     0.0242306  
C485     C      0.963610000000     0.696770000000     0.635490000000    -0.105779   
C486     C      0.946670000000     0.714480000000     0.646000000000     0.0241084  
C487     C      0.914620000000     0.741300000000     0.588980000000     0.02273    
C488     C      0.888050000000     0.738760000000     0.589130000000    -0.066739   
C489     C      0.873140000000     0.753090000000     0.572760000000     0.0239427  
C490     C      0.884600000000     0.770560000000     0.556440000000    -0.10577    
C491     C      0.911190000000     0.773460000000     0.556840000000     0.0242641  
C492     C      0.926070000000     0.758740000000     0.572770000000    -0.0669103  
C493     C      0.094140000000     0.738980000000     0.630750000000    -0.0660057  
C494     C      0.105860000000     0.728070000000     0.609870000000     0.0225441  
C495     C      0.100960000000     0.702380000000     0.604230000000    -0.0661251  
C496     C      0.084220000000     0.688080000000     0.618750000000     0.0229597  
C497     C      0.072070000000     0.699100000000     0.639350000000    -0.104798   
C498     C      0.077490000000     0.724610000000     0.645400000000     0.0229373  
C499     C      0.122310000000     0.743620000000     0.593370000000     0.0224779  
C500     C      0.114810000000     0.768270000000     0.586220000000    -0.0658645  
C501     C      0.129350000000     0.782250000000     0.569310000000     0.0230682  
C502     C      0.151790000000     0.771940000000     0.559260000000    -0.104745   
C503     C      0.159630000000     0.747540000000     0.566920000000     0.0228083  
C504     C      0.145010000000     0.733520000000     0.583730000000    -0.0660561  
C505     C      0.134130000000     0.552760000000     0.751330000000    -0.0653814  
C506     C      0.121530000000     0.573420000000     0.762720000000     0.0230111  
C507     C      0.124710000000     0.576880000000     0.788450000000    -0.065469   
C508     C      0.139220000000     0.559740000000     0.802400000000     0.0249951  
C509     C      0.151630000000     0.539280000000     0.790850000000    -0.106      
C510     C      0.149310000000     0.536170000000     0.765170000000     0.0249823  
C511     C      0.104560000000     0.590640000000     0.747970000000     0.0231101  
C512     C      0.108880000000     0.594710000000     0.722480000000    -0.0656     
C513     C      0.091910000000     0.609160000000     0.708340000000     0.0254721  
C514     C      0.070770000000     0.620710000000     0.719470000000    -0.106267   
C515     C      0.066860000000     0.617700000000     0.744980000000     0.0251139  
C516     C      0.083310000000     0.602520000000     0.759000000000    -0.0654017  
C517     C      0.734330000000     0.903860000000     0.600870000000    -0.0658559  
C518     C      0.759420000000     0.897180000000     0.607130000000     0.0225265  
C519     C      0.770010000000     0.906910000000     0.629060000000    -0.0662121  
C520     C      0.755980000000     0.923310000000     0.644220000000     0.0228372  
C521     C      0.731090000000     0.930520000000     0.637680000000    -0.104876   
C522     C      0.720350000000     0.920420000000     0.615930000000     0.023119   
C523     C      0.774760000000     0.880790000000     0.590390000000     0.0226296  
C524     C      0.764110000000     0.858890000000     0.579560000000    -0.0662126  
C525     C      0.778330000000     0.844020000000     0.563110000000     0.023068   
C526     C      0.803440000000     0.850850000000     0.556970000000    -0.104848   
C527     C      0.814160000000     0.872600000000     0.568060000000     0.0232849  
C528     C      0.800010000000     0.887350000000     0.584650000000    -0.0659829  
C529     C      0.601660000000     0.081120000000     0.789310000000    -0.0658983  
C530     C      0.608670000000     0.089030000000     0.765390000000     0.0225526  
C531     C      0.598820000000     0.112050000000     0.756130000000    -0.0661876  
C532     C      0.581860000000     0.126540000000     0.770230000000     0.0229807  
C533     C      0.574230000000     0.118270000000     0.793880000000    -0.104711   
C534     C      0.584570000000     0.095540000000     0.803370000000     0.0231294  
C535     C      0.625150000000     0.072680000000     0.749680000000     0.0225238  
C536     C      0.646740000000     0.060590000000     0.759590000000    -0.0659566  
C537     C      0.661380000000     0.044120000000     0.745000000000     0.0230494  
C538     C      0.654580000000     0.039220000000     0.720260000000    -0.104976   
C539     C      0.633250000000     0.051710000000     0.710260000000     0.0231344  
C540     C      0.618760000000     0.068280000000     0.724770000000    -0.0661328  
C541     C      0.773490000000     0.052160000000     0.621760000000    -0.065441   
C542     C      0.761480000000     0.073270000000     0.610550000000     0.0231635  
C543     C      0.735450000000     0.077380000000     0.615490000000    -0.0656809  
C544     C      0.721670000000     0.060300000000     0.630160000000     0.0255541  
C545     C      0.733750000000     0.039260000000     0.640990000000    -0.106371   
C546     C      0.759860000000     0.035590000000     0.637110000000     0.025136   
C547     C      0.775730000000     0.090270000000     0.593100000000     0.0230935  
C548     C      0.802220000000     0.093820000000     0.595450000000    -0.0655621  
C549     C      0.815700000000     0.108340000000     0.578130000000     0.0251891  
C550     C      0.802920000000     0.120390000000     0.558580000000    -0.106226   
C551     C      0.776480000000     0.117710000000     0.556560000000     0.0251673  
C552     C      0.763090000000     0.102520000000     0.573350000000    -0.065546   
C553     C      0.587130000000     0.894740000000     0.779440000000    -0.0668634  
C554     C      0.604100000000     0.883040000000     0.762920000000     0.022758   
C555     C      0.604830000000     0.856340000000     0.761380000000    -0.0667132  
C556     C      0.588230000000     0.841550000000     0.775680000000     0.0240613  
C557     C      0.571100000000     0.853250000000     0.792160000000    -0.105755   
C558     C      0.570980000000     0.879980000000     0.794140000000     0.0242064  
C559     C      0.620330000000     0.898870000000     0.746780000000     0.0226627  
C560     C      0.609100000000     0.915730000000     0.729840000000    -0.0667888  
C561     C      0.624220000000     0.931520000000     0.715120000000     0.0241656  
C562     C      0.650850000000     0.931150000000     0.717480000000    -0.105725   
C563     C      0.662100000000     0.914100000000     0.734350000000     0.0238716  
C564     C      0.646930000000     0.897850000000     0.748690000000    -0.0665509  
C565     C      0.440840000000     0.856930000000     0.751210000000    -0.0659783  
C566     C      0.429000000000     0.878750000000     0.761020000000     0.0225311  
C567     C      0.433710000000     0.885420000000     0.785800000000    -0.066072   
C568     C      0.450390000000     0.871010000000     0.800270000000     0.0230296  
C569     C      0.462680000000     0.849490000000     0.790350000000    -0.10478    
C570     C      0.457420000000     0.842380000000     0.765760000000     0.0229329  
C571     C      0.412720000000     0.895260000000     0.745250000000     0.0225229  
C572     C      0.420480000000     0.901870000000     0.721180000000    -0.0658439  
C573     C      0.406220000000     0.919010000000     0.707020000000     0.0230342  
C574     C      0.383780000000     0.929830000000     0.716570000000    -0.104635   
C575     C      0.375620000000     0.922600000000     0.740370000000     0.0229863  
C576     C      0.389970000000     0.905570000000     0.754570000000    -0.0660663  
C577     C      0.451390000000     0.730390000000     0.888960000000    -0.0654756  
C578     C      0.430490000000     0.742260000000     0.900630000000     0.0231404  
C579     C      0.426440000000     0.768470000000     0.896260000000    -0.0655748  
C580     C      0.443300000000     0.782510000000     0.881580000000     0.0252749  
C581     C      0.464050000000     0.770530000000     0.870180000000    -0.106062   
C582     C      0.467710000000     0.744290000000     0.873610000000     0.0250279  
C583     C      0.413580000000     0.727600000000     0.917840000000     0.0230347  
C584     C      0.409940000000     0.701120000000     0.914880000000    -0.0655184  
C585     C      0.395390000000     0.687240000000     0.931880000000     0.0251618  
C586     C      0.383400000000     0.699600000000     0.951710000000    -0.106078   
C587     C      0.386210000000     0.726040000000     0.954380000000     0.0249973  
C588     C      0.401430000000     0.739810000000     0.937900000000    -0.0652982  
C589     C      0.644880000000     0.741590000000     0.929930000000    -0.0661353  
C590     C      0.623090000000     0.730850000000     0.919030000000     0.0226256  
C591     C      0.616640000000     0.705510000000     0.924710000000    -0.0660051  
C592     C      0.631380000000     0.691350000000     0.941260000000     0.0232938  
C593     C      0.653030000000     0.702140000000     0.952400000000    -0.104901   
C594     C      0.659770000000     0.727340000000     0.946360000000     0.0229831  
C595     C      0.606630000000     0.746140000000     0.902330000000     0.0225367  
C596     C      0.599680000000     0.771180000000     0.908670000000    -0.0657431  
C597     C      0.582800000000     0.784960000000     0.893780000000     0.0230782  
C598     C      0.572670000000     0.774050000000     0.872120000000    -0.104717   
C599     C      0.580210000000     0.749250000000     0.865450000000     0.0228558  
C600     C      0.596930000000     0.735430000000     0.880430000000    -0.0661828  
C601     C      0.772960000000     0.612910000000     0.080610000000    -0.0660811  
C602     C      0.762370000000     0.590840000000     0.091190000000     0.0226124  
C603     C      0.737180000000     0.584230000000     0.085300000000    -0.0659874  
C604     C      0.723040000000     0.599070000000     0.068790000000     0.0231235  
C605     C      0.733710000000     0.620970000000     0.057920000000    -0.10466    
C606     C      0.758740000000     0.627890000000     0.064230000000     0.0227841  
C607     C      0.777740000000     0.574210000000     0.107680000000     0.0225884  
C608     C      0.802830000000     0.567680000000     0.101310000000    -0.0658208  
C609     C      0.816750000000     0.550700000000     0.115960000000     0.0231812  
C610     C      0.805950000000     0.540010000000     0.137420000000    -0.10476    
C611     C      0.781080000000     0.547100000000     0.144130000000     0.0229892  
C612     C      0.767100000000     0.563930000000     0.129380000000    -0.0661997  
C613     C      0.584300000000     0.731110000000     0.120280000000    -0.0653655  
C614     C      0.605000000000     0.743430000000     0.108720000000     0.0230397  
C615     C      0.608310000000     0.769780000000     0.112940000000    -0.0654622  
C616     C      0.591010000000     0.783450000000     0.127460000000     0.0250794  
C617     C      0.570530000000     0.770980000000     0.138860000000    -0.106047   
C618     C      0.567540000000     0.744650000000     0.135470000000     0.0250282  
C619     C      0.622480000000     0.729050000000     0.091830000000     0.0230435  
C620     C      0.626670000000     0.702670000000     0.095020000000    -0.0654683  
C621     C      0.641610000000     0.688960000000     0.078220000000     0.0250931  
C622     C      0.653500000000     0.701420000000     0.058380000000    -0.105969   
C623     C      0.650240000000     0.727790000000     0.055550000000     0.024959   
C624     C      0.634610000000     0.741380000000     0.071820000000    -0.0654006  
C625     C      0.934470000000     0.581240000000     0.720270000000    -0.065738   
C626     C      0.927210000000     0.589130000000     0.744130000000     0.0224817  
C627     C      0.936870000000     0.612180000000     0.753470000000    -0.0661758  
C628     C      0.953860000000     0.626770000000     0.739500000000     0.0228098  
C629     C      0.961720000000     0.618540000000     0.715910000000    -0.104715   
C630     C      0.951610000000     0.595750000000     0.706340000000     0.023091   
C631     C      0.910610000000     0.572780000000     0.759700000000     0.0227418  
C632     C      0.888920000000     0.560960000000     0.749680000000    -0.066152   
C633     C      0.874040000000     0.544650000000     0.764210000000     0.0231838  
C634     C      0.880720000000     0.539620000000     0.788960000000    -0.10497    
C635     C      0.902200000000     0.551780000000     0.799030000000     0.0235601  
C636     C      0.916910000000     0.568230000000     0.784600000000    -0.0661893  
C637     C      0.762350000000     0.553880000000     0.888150000000    -0.0653739  
C638     C      0.774650000000     0.574500000000     0.899920000000     0.0230214  
C639     C      0.800880000000     0.578010000000     0.895520000000    -0.0654546  
C640     C      0.814490000000     0.560900000000     0.880720000000     0.0250465  
C641     C      0.802060000000     0.540430000000     0.869210000000    -0.105896   
C642     C      0.775820000000     0.537320000000     0.872690000000     0.0249355  
C643     C      0.760400000000     0.591640000000     0.917260000000     0.0229993  
C644     C      0.734030000000     0.595760000000     0.914430000000    -0.0654031  
C645     C      0.720470000000     0.610360000000     0.931620000000     0.0250187  
C646     C      0.733060000000     0.621970000000     0.951540000000    -0.105907   
C647     C      0.759400000000     0.618780000000     0.954030000000     0.0250311  
C648     C      0.772860000000     0.603480000000     0.937360000000    -0.0653955  
C649     C      0.763510000000     0.408720000000     0.880250000000    -0.066167   
C650     C      0.774550000000     0.398200000000     0.901640000000     0.0226665  
C651     C      0.799920000000     0.404240000000     0.907380000000    -0.0660314  
C652     C      0.813790000000     0.420890000000     0.892340000000     0.0234328  
C653     C      0.802660000000     0.431730000000     0.871130000000    -0.104929   
C654     C      0.777450000000     0.425230000000     0.865090000000     0.0229813  
C655     C      0.759460000000     0.381590000000     0.918370000000     0.0226173  
C656     C      0.734540000000     0.388400000000     0.925110000000    -0.0659225  
C657     C      0.720770000000     0.373480000000     0.941860000000     0.0233885  
C658     C      0.731540000000     0.351320000000     0.952110000000    -0.105055   
C659     C      0.756290000000     0.344240000000     0.944940000000     0.0229854  
C660     C      0.770120000000     0.359270000000     0.928340000000    -0.0662472  
C661     C      0.918130000000     0.402930000000     0.786600000000    -0.0658117  
C662     C      0.911270000000     0.397080000000     0.762090000000     0.022611   
C663     C      0.888940000000     0.407790000000     0.752240000000    -0.0660163  
C664     C      0.874060000000     0.424370000000     0.766440000000     0.0230481  
C665     C      0.881290000000     0.430780000000     0.790740000000    -0.104595   
C666     C      0.903370000000     0.419660000000     0.800730000000     0.0232285  
C667     C      0.927920000000     0.380680000000     0.746590000000     0.0225978  
C668     C      0.933850000000     0.387800000000     0.722170000000    -0.065798   
C669     C      0.950760000000     0.373250000000     0.708030000000     0.0231643  
C670     C      0.961990000000     0.351150000000     0.717940000000    -0.104503   
C671     C      0.955540000000     0.343690000000     0.742170000000     0.023016   
C672     C      0.938780000000     0.358350000000     0.756370000000    -0.0659323  
Cu1      Cu     0.824420000000     0.485280000000     0.814110000000     0.836683   
Cu2      Cu     0.858590000000     0.486160000000     0.845720000000     0.842273   
Cu3      Cu     0.710200000000     0.678420000000     0.005180000000     0.836044   
Cu4      Cu     0.676860000000     0.645000000000     0.005100000000     0.841853   
Cu5      Cu     0.516670000000     0.828710000000     0.847010000000     0.842093   
Cu6      Cu     0.518640000000     0.794590000000     0.815310000000     0.837117   
Cu7      Cu     0.675950000000     0.985890000000     0.663140000000     0.842724   
Cu8      Cu     0.709760000000     0.983680000000     0.695070000000     0.83593    
Cu9      Cu     0.016010000000     0.675850000000     0.693610000000     0.83678    
Cu10     Cu     0.018100000000     0.641670000000     0.661970000000     0.841581   
Cu11     Cu     0.859820000000     0.826850000000     0.503520000000     0.843742   
Cu12     Cu     0.826600000000     0.793350000000     0.504290000000     0.835866   
Cu13     Cu     0.518230000000     0.140690000000     0.848370000000     0.842904   
Cu14     Cu     0.519260000000     0.174830000000     0.816680000000     0.837636   
Cu15     Cu     0.709520000000     0.292910000000     0.004250000000     0.836581   
Cu16     Cu     0.676240000000     0.326330000000     0.006220000000     0.844502   
Cu17     Cu     0.861460000000     0.484510000000     0.161630000000     0.841395   
Cu18     Cu     0.827440000000     0.485200000000     0.193390000000     0.839318   
Cu19     Cu     0.018700000000     0.641890000000     0.346440000000     0.84115    
Cu20     Cu     0.018070000000     0.676080000000     0.314770000000     0.838409   
Cu21     Cu     0.208390000000     0.794080000000     0.505320000000     0.838338   
Cu22     Cu     0.175170000000     0.827590000000     0.504720000000     0.842057   
Cu23     Cu     0.362060000000     0.985530000000     0.661490000000     0.840554   
Cu24     Cu     0.328140000000     0.985640000000     0.693340000000     0.838631   
Cu25     Cu     0.706280000000     0.985110000000     0.316350000000     0.837218   
Cu26     Cu     0.672450000000     0.984020000000     0.348280000000     0.842182   
Cu27     Cu     0.516440000000     0.793530000000     0.194720000000     0.838623   
Cu28     Cu     0.516540000000     0.827610000000     0.162900000000     0.841014   
Cu29     Cu     0.207800000000     0.484810000000     0.814980000000     0.83897    
Cu30     Cu     0.174080000000     0.485510000000     0.847040000000     0.840975   
Cu31     Cu     0.359750000000     0.642540000000     0.004270000000     0.840589   
Cu32     Cu     0.326370000000     0.675910000000     0.004280000000     0.838333   
Cu33     Cu     0.173880000000     0.485450000000     0.161890000000     0.841657   
Cu34     Cu     0.207820000000     0.483680000000     0.193700000000     0.837118   
Cu35     Cu     0.358970000000     0.326680000000     0.004330000000     0.841642   
Cu36     Cu     0.325940000000     0.293010000000     0.004130000000     0.835749   
Cu37     Cu     0.517890000000     0.175050000000     0.193420000000     0.836755   
Cu38     Cu     0.516600000000     0.140790000000     0.161870000000     0.841969   
Cu39     Cu     0.016360000000     0.294320000000     0.694200000000     0.837539   
Cu40     Cu     0.017070000000     0.328640000000     0.662670000000     0.840945   
Cu41     Cu     0.858600000000     0.143320000000     0.504470000000     0.841963   
Cu42     Cu     0.825280000000     0.176750000000     0.504680000000     0.838103   
Cu43     Cu     0.209340000000     0.177530000000     0.504620000000     0.835677   
Cu44     Cu     0.176000000000     0.144150000000     0.506290000000     0.842674   
Cu45     Cu     0.326200000000     0.986290000000     0.316040000000     0.836181   
Cu46     Cu     0.360430000000     0.984600000000     0.347560000000     0.84081    
Cu47     Cu     0.016050000000     0.327600000000     0.346980000000     0.84192    
Cu48     Cu     0.017900000000     0.293750000000     0.315000000000     0.835982   
H1       H      0.097430000000     0.194700000000     0.417750000000     0.0469878  
H2       H      0.123500000000     0.170040000000     0.446450000000     0.0356802  
H3       H      0.175260000000     0.233730000000     0.453320000000     0.0353126  
H4       H      0.149210000000     0.258260000000     0.424510000000     0.046715   
H5       H      0.105890000000     0.277790000000     0.425080000000     0.0469492  
H6       H      0.077140000000     0.302390000000     0.398850000000     0.0356847  
H7       H      0.070430000000     0.238100000000     0.349140000000     0.0353049  
H8       H      0.099280000000     0.213640000000     0.375350000000     0.0466935  
H9       H      0.259780000000     0.085280000000     0.370290000000     0.0480612  
H10      H      0.284380000000     0.056270000000     0.343780000000     0.0341351  
H11      H      0.321820000000     0.025790000000     0.408610000000     0.0347127  
H12      H      0.296690000000     0.054230000000     0.434930000000     0.0482604  
H13      H      0.241300000000     0.056220000000     0.437880000000     0.0483666  
H14      H      0.215890000000     0.082620000000     0.465870000000     0.0346898  
H15      H      0.251400000000     0.150330000000     0.436050000000     0.0340894  
H16      H      0.276290000000     0.123700000000     0.407490000000     0.0480431  
H17      H      0.902170000000     0.259810000000     0.440030000000     0.0463423  
H18      H      0.875320000000     0.236110000000     0.468490000000     0.0324625  
H19      H      0.891220000000     0.166620000000     0.428740000000     0.0319998  
H20      H      0.916310000000     0.190410000000     0.398680000000     0.0462364  
H21      H      0.953970000000     0.209750000000     0.391520000000     0.0463863  
H22      H      0.982540000000     0.233730000000     0.364860000000     0.0320919  
H23      H      0.938870000000     0.302000000000     0.377810000000     0.0317269  
H24      H      0.908700000000     0.277850000000     0.402690000000     0.0462513  
H25      H      0.934340000000     0.214270000000     0.634320000000     0.0467698  
H26      H      0.963380000000     0.238640000000     0.660420000000     0.0354093  
H27      H      0.956680000000     0.302930000000     0.610690000000     0.0356352  
H28      H      0.927800000000     0.278420000000     0.584560000000     0.046981   
H29      H      0.884560000000     0.258790000000     0.584740000000     0.0468456  
H30      H      0.858840000000     0.234090000000     0.555720000000     0.0352748  
H31      H      0.910750000000     0.170610000000     0.563290000000     0.0354908  
H32      H      0.936450000000     0.195400000000     0.592100000000     0.047      
H33      H      0.124420000000     0.281280000000     0.604330000000     0.0461689  
H34      H      0.093930000000     0.305020000000     0.629280000000     0.0320621  
H35      H      0.052940000000     0.235590000000     0.644660000000     0.0324643  
H36      H      0.081760000000     0.211990000000     0.618040000000     0.0462965  
H37      H      0.119940000000     0.193810000000     0.611330000000     0.0461598  
H38      H      0.145150000000     0.169680000000     0.581680000000     0.0317071  
H39      H      0.158610000000     0.238100000000     0.539420000000     0.0319441  
H40      H      0.131540000000     0.262100000000     0.567540000000     0.0462819  
H41      H      0.438320000000     0.074620000000     0.295510000000     0.047015   
H42      H      0.412770000000     0.045580000000     0.320590000000     0.0357607  
H43      H      0.357420000000     0.040690000000     0.261520000000     0.0354489  
H44      H      0.382930000000     0.069840000000     0.236620000000     0.0466445  
H45      H      0.424810000000     0.067100000000     0.215450000000     0.0467764  
H46      H      0.453520000000     0.092270000000     0.189820000000     0.035243   
H47      H      0.466700000000     0.143430000000     0.251290000000     0.0356568  
H48      H      0.437780000000     0.118230000000     0.276870000000     0.0468819  
H49      H      0.435660000000     0.256960000000     0.134940000000     0.0466491  
H50      H      0.465130000000     0.232360000000     0.160460000000     0.0353403  
H51      H      0.456130000000     0.167860000000     0.111350000000     0.035558   
H52      H      0.426970000000     0.192550000000     0.085820000000     0.0467856  
H53      H      0.436310000000     0.275770000000     0.092910000000     0.0468071  
H54      H      0.410560000000     0.300260000000     0.063920000000     0.035542   
H55      H      0.358610000000     0.236710000000     0.057050000000     0.0353964  
H56      H      0.384330000000     0.212350000000     0.086320000000     0.046628   
H57      H      0.286420000000     0.400030000000     0.134820000000     0.0466562  
H58      H      0.262040000000     0.429050000000     0.160880000000     0.035413   
H59      H      0.198910000000     0.424400000000     0.109710000000     0.0356736  
H60      H      0.223480000000     0.395480000000     0.083600000000     0.0470208  
H61      H      0.242610000000     0.351840000000     0.083210000000     0.0467941  
H62      H      0.267720000000     0.326330000000     0.054320000000     0.0352991  
H63      H      0.331440000000     0.377440000000     0.064440000000     0.0354059  
H64      H      0.306250000000     0.402910000000     0.093120000000     0.0469275  
H65      H      0.116560000000     0.347190000000     0.248160000000     0.0478929  
H66      H      0.088000000000     0.320720000000     0.273400000000     0.0340499  
H67      H      0.057040000000     0.388730000000     0.307070000000     0.034631   
H68      H      0.085020000000     0.414980000000     0.281350000000     0.0481946  
H69      H      0.086760000000     0.417030000000     0.228520000000     0.0481551  
H70      H      0.112810000000     0.445100000000     0.202690000000     0.0345749  
H71      H      0.180850000000     0.413880000000     0.235840000000     0.0340356  
H72      H      0.154580000000     0.385240000000     0.261180000000     0.0479356  
H73      H      0.224390000000     0.591730000000     0.104420000000     0.0462008  
H74      H      0.200030000000     0.562020000000     0.129650000000     0.0318106  
H75      H      0.267800000000     0.517970000000     0.143360000000     0.0321125  
H76      H      0.291990000000     0.546050000000     0.116360000000     0.0462584  
H77      H      0.311560000000     0.583590000000     0.109000000000     0.0462047  
H78      H      0.335570000000     0.608680000000     0.079120000000     0.0320703  
H79      H      0.266600000000     0.624790000000     0.038860000000     0.0323501  
H80      H      0.242670000000     0.597920000000     0.067150000000     0.0463119  
H81      H      0.150400000000     0.401330000000     0.735610000000     0.0467116  
H82      H      0.175970000000     0.430800000000     0.760120000000     0.0353926  
H83      H      0.122020000000     0.424590000000     0.820310000000     0.0355783  
H84      H      0.096430000000     0.395280000000     0.795640000000     0.0470238  
H85      H      0.097250000000     0.351800000000     0.776740000000     0.0468413  
H86      H      0.068010000000     0.326410000000     0.751660000000     0.035265   
H87      H      0.078980000000     0.378280000000     0.690320000000     0.0353332  
H88      H      0.107970000000     0.403620000000     0.715450000000     0.046912   
H89      H      0.289750000000     0.566960000000     0.873060000000     0.0467898  
H90      H      0.264920000000     0.537680000000     0.847520000000     0.0353952  
H91      H      0.200660000000     0.547250000000     0.896650000000     0.0354093  
H92      H      0.225570000000     0.576260000000     0.922180000000     0.0469353  
H93      H      0.245990000000     0.618920000000     0.921430000000     0.0467323  
H94      H      0.270530000000     0.644240000000     0.950870000000     0.0354361  
H95      H      0.332940000000     0.590910000000     0.944660000000     0.0355547  
H96      H      0.308270000000     0.565560000000     0.915440000000     0.0470342  
H97      H      0.288320000000     0.402080000000     0.873680000000     0.0467831  
H98      H      0.263910000000     0.431610000000     0.848120000000     0.0355664  
H99      H      0.200190000000     0.424580000000     0.898320000000     0.0356095  
H100     H      0.224750000000     0.395240000000     0.923930000000     0.0469838  
H101     H      0.307650000000     0.403510000000     0.915510000000     0.0470081  
H102     H      0.332430000000     0.377650000000     0.944180000000     0.0356368  
H103     H      0.268790000000     0.326100000000     0.952440000000     0.0354039  
H104     H      0.244090000000     0.351970000000     0.923520000000     0.0467719  
H105     H      0.426590000000     0.776880000000     0.086220000000     0.0469183  
H106     H      0.455480000000     0.801600000000     0.112090000000     0.035446   
H107     H      0.463130000000     0.737380000000     0.161780000000     0.0353221  
H108     H      0.434030000000     0.712770000000     0.135900000000     0.0467806  
H109     H      0.436040000000     0.693950000000     0.093610000000     0.0469482  
H110     H      0.410780000000     0.669240000000     0.064360000000     0.0354653  
H111     H      0.358350000000     0.732330000000     0.057070000000     0.0353102  
H112     H      0.383610000000     0.756930000000     0.086520000000     0.0467506  
H113     H      0.453290000000     0.870420000000     0.277840000000     0.0461814  
H114     H      0.481570000000     0.843520000000     0.253740000000     0.0324095  
H115     H      0.439460000000     0.861260000000     0.187440000000     0.0319108  
H116     H      0.409470000000     0.886400000000     0.211640000000     0.04613    
H117     H      0.402650000000     0.923700000000     0.231290000000     0.0461779  
H118     H      0.376030000000     0.952060000000     0.255720000000     0.0317747  
H119     H      0.390860000000     0.907110000000     0.320970000000     0.0315575  
H120     H      0.415600000000     0.877130000000     0.296400000000     0.0461867  
H121     H      0.805690000000     0.065600000000     0.417170000000     0.0470355  
H122     H      0.830800000000     0.091380000000     0.445630000000     0.0355087  
H123     H      0.767510000000     0.143310000000     0.454110000000     0.0353148  
H124     H      0.742470000000     0.117500000000     0.425430000000     0.0468146  
H125     H      0.722910000000     0.074120000000     0.425730000000     0.0469776  
H126     H      0.698230000000     0.045040000000     0.399910000000     0.0357197  
H127     H      0.761820000000     0.038510000000     0.349480000000     0.0355618  
H128     H      0.786320000000     0.067720000000     0.375250000000     0.0467565  
H129     H      0.649510000000     0.903270000000     0.234430000000     0.0468521  
H130     H      0.674680000000     0.932690000000     0.259460000000     0.0356374  
H131     H      0.622840000000     0.921750000000     0.320740000000     0.035307   
H132     H      0.597660000000     0.892560000000     0.295610000000     0.0467568  
H133     H      0.599520000000     0.850120000000     0.275280000000     0.0467601  
H134     H      0.570210000000     0.824690000000     0.250400000000     0.0353233  
H135     H      0.577410000000     0.878850000000     0.190400000000     0.0354731  
H136     H      0.606490000000     0.904280000000     0.215400000000     0.0469484  
H137     H      0.586470000000     0.054080000000     0.282350000000     0.048371   
H138     H      0.612200000000     0.025870000000     0.308270000000     0.0348474  
H139     H      0.680530000000     0.055260000000     0.274050000000     0.0341463  
H140     H      0.654550000000     0.084040000000     0.248570000000     0.0481383  
H141     H      0.616120000000     0.122960000000     0.261850000000     0.048083   
H142     H      0.587600000000     0.149020000000     0.236170000000     0.0340679  
H143     H      0.557570000000     0.080480000000     0.202660000000     0.0348313  
H144     H      0.585510000000     0.054690000000     0.228770000000     0.0484544  
H145     H      0.311420000000     0.076140000000     0.585100000000     0.0469082  
H146     H      0.335950000000     0.046560000000     0.610430000000     0.0355956  
H147     H      0.273190000000     0.041110000000     0.661940000000     0.0355632  
H148     H      0.248830000000     0.070930000000     0.636680000000     0.0466531  
H149     H      0.228570000000     0.069120000000     0.595490000000     0.0467964  
H150     H      0.203470000000     0.094580000000     0.566820000000     0.0353125  
H151     H      0.267570000000     0.145030000000     0.555870000000     0.0356535  
H152     H      0.292620000000     0.119540000000     0.584870000000     0.0468228  
H153     H      0.290220000000     0.853530000000     0.585120000000     0.04682    
H154     H      0.265450000000     0.827700000000     0.556300000000     0.0355154  
H155     H      0.202360000000     0.880090000000     0.563550000000     0.0354652  
H156     H      0.227270000000     0.905950000000     0.592150000000     0.0468958  
H157     H      0.310070000000     0.896480000000     0.584380000000     0.0469227  
H158     H      0.335020000000     0.925310000000     0.610130000000     0.0353983  
H159     H      0.271140000000     0.933550000000     0.659970000000     0.0353619  
H160     H      0.246320000000     0.904490000000     0.634240000000     0.0468118  
H161     H      0.309510000000     0.893160000000     0.422180000000     0.0467015  
H162     H      0.334150000000     0.922490000000     0.396770000000     0.0353322  
H163     H      0.269610000000     0.932240000000     0.348040000000     0.0356788  
H164     H      0.245060000000     0.902580000000     0.373410000000     0.0467507  
H165     H      0.226590000000     0.903600000000     0.415460000000     0.0468549  
H166     H      0.202020000000     0.878350000000     0.444770000000     0.0354816  
H167     H      0.264720000000     0.825450000000     0.451620000000     0.035436   
H168     H      0.289190000000     0.850690000000     0.422000000000     0.0466658  
H169     H      0.080060000000     0.759350000000     0.392640000000     0.0462981  
H170     H      0.052130000000     0.735280000000     0.365480000000     0.032115   
H171     H      0.095150000000     0.666920000000     0.380040000000     0.0317601  
H172     H      0.124750000000     0.691170000000     0.405520000000     0.0462876  
H173     H      0.130580000000     0.709870000000     0.442780000000     0.0463472  
H174     H      0.157210000000     0.733970000000     0.471180000000     0.0320089  
H175     H      0.142610000000     0.802690000000     0.429720000000     0.0316904  
H176     H      0.117820000000     0.778470000000     0.399770000000     0.0462778  
H177     H      0.152660000000     0.567410000000     0.275260000000     0.0467827  
H178     H      0.177480000000     0.537540000000     0.250350000000     0.0357263  
H179     H      0.125540000000     0.548520000000     0.189180000000     0.0353007  
H180     H      0.100720000000     0.578080000000     0.214150000000     0.0467087  
H181     H      0.102280000000     0.620430000000     0.234280000000     0.0466612  
H182     H      0.072600000000     0.645590000000     0.259020000000     0.0353667  
H183     H      0.080500000000     0.591870000000     0.319290000000     0.0354331  
H184     H      0.109890000000     0.566690000000     0.294460000000     0.0469163  
H185     H      0.886220000000     0.566150000000     0.274530000000     0.0468231  
H186     H      0.860410000000     0.537120000000     0.249710000000     0.0354824  
H187     H      0.913070000000     0.545540000000     0.188710000000     0.0354484  
H188     H      0.938890000000     0.574380000000     0.213650000000     0.0469463  
H189     H      0.929140000000     0.564450000000     0.293960000000     0.0469843  
H190     H      0.958040000000     0.590120000000     0.318950000000     0.0354625  
H191     H      0.966650000000     0.643020000000     0.258070000000     0.0354891  
H192     H      0.937560000000     0.617360000000     0.233210000000     0.0468615  
H193     H      0.936800000000     0.393480000000     0.214000000000     0.0469112  
H194     H      0.911850000000     0.423110000000     0.189180000000     0.0355278  
H195     H      0.857820000000     0.430600000000     0.249140000000     0.0354659  
H196     H      0.882740000000     0.400690000000     0.273850000000     0.0466478  
H197     H      0.924800000000     0.401980000000     0.294310000000     0.0467314  
H198     H      0.953850000000     0.376690000000     0.319370000000     0.0353372  
H199     H      0.965210000000     0.325140000000     0.257860000000     0.0357085  
H200     H      0.935830000000     0.350430000000     0.232850000000     0.0468151  
H201     H      0.794090000000     0.370150000000     0.067140000000     0.0464416  
H202     H      0.769920000000     0.343110000000     0.039140000000     0.0318917  
H203     H      0.701930000000     0.356730000000     0.081780000000     0.0314857  
H204     H      0.726260000000     0.381930000000     0.111310000000     0.0463107  
H205     H      0.744520000000     0.420380000000     0.117410000000     0.0464223  
H206     H      0.768330000000     0.449380000000     0.143720000000     0.03227    
H207     H      0.837270000000     0.407640000000     0.128640000000     0.0319013  
H208     H      0.813330000000     0.377000000000     0.104020000000     0.0463059  
H209     H      0.650360000000     0.208410000000     0.082900000000     0.0468791  
H210     H      0.676110000000     0.233620000000     0.054200000000     0.0355535  
H211     H      0.627260000000     0.298650000000     0.066890000000     0.0352587  
H212     H      0.601560000000     0.273440000000     0.095230000000     0.0467188  
H213     H      0.603820000000     0.252560000000     0.136060000000     0.046593   
H214     H      0.573900000000     0.228620000000     0.161480000000     0.0355549  
H215     H      0.576690000000     0.166270000000     0.109130000000     0.0357136  
H216     H      0.606450000000     0.190450000000     0.083590000000     0.0469333  
H217     H      0.385900000000     0.067180000000     0.774640000000     0.0468406  
H218     H      0.360360000000     0.038050000000     0.749690000000     0.0354268  
H219     H      0.413910000000     0.045860000000     0.689350000000     0.0354537  
H220     H      0.439470000000     0.074780000000     0.714430000000     0.0469691  
H221     H      0.428410000000     0.065080000000     0.794590000000     0.0469432  
H222     H      0.457330000000     0.090320000000     0.819900000000     0.0354775  
H223     H      0.467590000000     0.143070000000     0.759160000000     0.035281   
H224     H      0.438420000000     0.117820000000     0.733910000000     0.0467928  
H225     H      0.617820000000     0.242570000000     0.869630000000     0.0481375  
H226     H      0.589030000000     0.217380000000     0.843450000000     0.0340146  
H227     H      0.559210000000     0.180170000000     0.908750000000     0.0346202  
H228     H      0.587450000000     0.205860000000     0.934710000000     0.048454   
H229     H      0.588840000000     0.261510000000     0.936950000000     0.0484263  
H230     H      0.615020000000     0.287030000000     0.965030000000     0.0346474  
H231     H      0.682730000000     0.251390000000     0.935580000000     0.0341136  
H232     H      0.656330000000     0.226380000000     0.906980000000     0.0482092  
H233     H      0.436700000000     0.256390000000     0.874680000000     0.0467956  
H234     H      0.466060000000     0.231680000000     0.849180000000     0.0357077  
H235     H      0.456240000000     0.166960000000     0.897880000000     0.0353942  
H236     H      0.427160000000     0.191770000000     0.923420000000     0.0467433  
H237     H      0.384710000000     0.212070000000     0.922780000000     0.0466898  
H238     H      0.358960000000     0.236620000000     0.951830000000     0.035544   
H239     H      0.411640000000     0.299640000000     0.945660000000     0.035591   
H240     H      0.437440000000     0.274950000000     0.916850000000     0.0468248  
H241     H      0.935690000000     0.775010000000     0.414300000000     0.0467518  
H242     H      0.910160000000     0.799880000000     0.443150000000     0.0354096  
H243     H      0.859810000000     0.735510000000     0.453260000000     0.0356476  
H244     H      0.885340000000     0.710710000000     0.424150000000     0.0468243  
H245     H      0.928710000000     0.691890000000     0.423810000000     0.0469289  
H246     H      0.957950000000     0.667460000000     0.398020000000     0.0356495  
H247     H      0.963090000000     0.730840000000     0.347030000000     0.0354382  
H248     H      0.933650000000     0.755110000000     0.372770000000     0.0467207  
H249     H      0.744450000000     0.850900000000     0.422960000000     0.0467788  
H250     H      0.769310000000     0.825420000000     0.452070000000     0.0353292  
H251     H      0.832330000000     0.877770000000     0.444010000000     0.0355981  
H252     H      0.807380000000     0.903250000000     0.415190000000     0.0469622  
H253     H      0.724620000000     0.893770000000     0.423600000000     0.046927   
H254     H      0.699720000000     0.923100000000     0.398410000000     0.0356154  
H255     H      0.763270000000     0.931620000000     0.348220000000     0.035377   
H256     H      0.788060000000     0.902000000000     0.373390000000     0.0467476  
H257     H      0.948050000000     0.704920000000     0.574730000000     0.0484116  
H258     H      0.976470000000     0.679790000000     0.601040000000     0.0347643  
H259     H      0.946270000000     0.717570000000     0.665840000000     0.0341397  
H260     H      0.917310000000     0.742180000000     0.639330000000     0.0481222  
H261     H      0.878930000000     0.725320000000     0.601520000000     0.0480999  
H262     H      0.852690000000     0.750530000000     0.572880000000     0.0340673  
H263     H      0.920580000000     0.786640000000     0.544370000000     0.0347746  
H264     H      0.946570000000     0.760950000000     0.572440000000     0.0484559  
H265     H      0.109480000000     0.693510000000     0.588130000000     0.0466879  
H266     H      0.080530000000     0.668480000000     0.613560000000     0.0352931  
H267     H      0.068490000000     0.733690000000     0.661140000000     0.0356443  
H268     H      0.097750000000     0.758660000000     0.635700000000     0.0468508  
H269     H      0.097280000000     0.776480000000     0.593130000000     0.0468668  
H270     H      0.122760000000     0.801000000000     0.563870000000     0.0356347  
H271     H      0.176840000000     0.739030000000     0.559620000000     0.0354472  
H272     H      0.151430000000     0.714680000000     0.589100000000     0.0465763  
H273     H      0.116030000000     0.592800000000     0.797980000000     0.0461744  
H274     H      0.140940000000     0.562620000000     0.822200000000     0.0319138  
H275     H      0.158490000000     0.520310000000     0.755920000000     0.0323917  
H276     H      0.131830000000     0.548810000000     0.731790000000     0.0462813  
H277     H      0.125320000000     0.586690000000     0.713270000000     0.0462169  
H278     H      0.095410000000     0.611460000000     0.688680000000     0.0315522  
H279     H      0.050460000000     0.626230000000     0.753890000000     0.0318796  
H280     H      0.078770000000     0.599580000000     0.778340000000     0.046255   
H281     H      0.789210000000     0.901880000000     0.634500000000     0.0466489  
H282     H      0.764870000000     0.930700000000     0.660840000000     0.0353348  
H283     H      0.701230000000     0.925540000000     0.610340000000     0.0356767  
H284     H      0.725730000000     0.896830000000     0.583960000000     0.0470183  
H285     H      0.744780000000     0.853240000000     0.583820000000     0.0467791  
H286     H      0.769460000000     0.827390000000     0.554920000000     0.0353791  
H287     H      0.833440000000     0.878420000000     0.563770000000     0.0356112  
H288     H      0.808650000000     0.904260000000     0.592520000000     0.0469465  
H289     H      0.604110000000     0.118780000000     0.737870000000     0.046605   
H290     H      0.574360000000     0.143990000000     0.762350000000     0.0354799  
H291     H      0.579160000000     0.088620000000     0.821530000000     0.0357656  
H292     H      0.608740000000     0.063350000000     0.796860000000     0.047031   
H293     H      0.652270000000     0.063800000000     0.778670000000     0.0469019  
H294     H      0.677690000000     0.034820000000     0.753290000000     0.0356764  
H295     H      0.627470000000     0.048420000000     0.691270000000     0.0352568  
H296     H      0.602080000000     0.077080000000     0.716660000000     0.0467659  
H297     H      0.725520000000     0.093710000000     0.607980000000     0.0462628  
H298     H      0.701550000000     0.063600000000     0.633120000000     0.0316006  
H299     H      0.769490000000     0.019280000000     0.645090000000     0.0320422  
H300     H      0.793260000000     0.047800000000     0.618160000000     0.046382   
H301     H      0.812710000000     0.085420000000     0.610640000000     0.0462284  
H302     H      0.836110000000     0.110360000000     0.580160000000     0.0320652  
H303     H      0.766260000000     0.126620000000     0.541420000000     0.0324176  
H304     H      0.742920000000     0.099920000000     0.570310000000     0.0464064  
H305     H      0.617770000000     0.847000000000     0.748670000000     0.0479963  
H306     H      0.588770000000     0.820990000000     0.773840000000     0.0340601  
H307     H      0.557900000000     0.889540000000     0.806560000000     0.0345945  
H308     H      0.586340000000     0.915330000000     0.780900000000     0.048241   
H309     H      0.588580000000     0.916730000000     0.728080000000     0.0481667  
H310     H      0.615000000000     0.944560000000     0.702400000000     0.0346894  
H311     H      0.682570000000     0.913390000000     0.736510000000     0.0340646  
H312     H      0.655920000000     0.884970000000     0.761720000000     0.047948   
H313     H      0.425110000000     0.902280000000     0.793820000000     0.046712   
H314     H      0.453950000000     0.877030000000     0.819150000000     0.035287   
H315     H      0.466530000000     0.825910000000     0.757530000000     0.0356314  
H316     H      0.437380000000     0.851180000000     0.732240000000     0.0468503  
H317     H      0.438050000000     0.894440000000     0.713570000000     0.046855   
H318     H      0.413040000000     0.924090000000     0.688750000000     0.0355581  
H319     H      0.358390000000     0.930480000000     0.748290000000     0.0354889  
H320     H      0.383340000000     0.900610000000     0.772950000000     0.0466223  
H321     H      0.410290000000     0.778330000000     0.904160000000     0.0462575  
H322     H      0.440000000000     0.802730000000     0.878990000000     0.0317952  
H323     H      0.483810000000     0.734720000000     0.865210000000     0.0322108  
H324     H      0.455720000000     0.710500000000     0.892130000000     0.0463763  
H325     H      0.418240000000     0.690950000000     0.899440000000     0.0462558  
H326     H      0.393260000000     0.666850000000     0.929340000000     0.0320373  
H327     H      0.377340000000     0.735930000000     0.969740000000     0.0324113  
H328     H      0.404100000000     0.759950000000     0.941420000000     0.0463096  
H329     H      0.599800000000     0.696800000000     0.916810000000     0.0469374  
H330     H      0.625640000000     0.671990000000     0.945470000000     0.0355014  
H331     H      0.676320000000     0.736250000000     0.954620000000     0.0352379  
H332     H      0.650420000000     0.761010000000     0.925730000000     0.0468302  
H333     H      0.606680000000     0.779860000000     0.925560000000     0.0470163  
H334     H      0.577440000000     0.804030000000     0.899450000000     0.0358077  
H335     H      0.572840000000     0.740250000000     0.848870000000     0.0353896  
H336     H      0.602180000000     0.716270000000     0.874920000000     0.0466152  
H337     H      0.728590000000     0.567190000000     0.092950000000     0.0469331  
H338     H      0.703810000000     0.593190000000     0.064390000000     0.0355292  
H339     H      0.767550000000     0.644630000000     0.056200000000     0.0352722  
H340     H      0.792250000000     0.618600000000     0.084980000000     0.0467758  
H341     H      0.811460000000     0.575110000000     0.084570000000     0.0468935  
H342     H      0.835870000000     0.545700000000     0.110260000000     0.0355916  
H343     H      0.772170000000     0.539280000000     0.160550000000     0.0353869  
H344     H      0.747910000000     0.568840000000     0.134900000000     0.0467407  
H345     H      0.624260000000     0.780010000000     0.105090000000     0.0462329  
H346     H      0.593800000000     0.803750000000     0.130030000000     0.031954   
H347     H      0.551670000000     0.734680000000     0.143870000000     0.0323272  
H348     H      0.580470000000     0.711090000000     0.117180000000     0.0462901  
H349     H      0.618440000000     0.692440000000     0.110460000000     0.0462291  
H350     H      0.644070000000     0.668630000000     0.080870000000     0.0318488  
H351     H      0.659010000000     0.737740000000     0.040170000000     0.0322821  
H352     H      0.631580000000     0.761420000000     0.068150000000     0.0463455  
H353     H      0.931390000000     0.618880000000     0.771690000000     0.0466239  
H354     H      0.961190000000     0.644250000000     0.747440000000     0.035495   
H355     H      0.957210000000     0.588880000000     0.688220000000     0.0358044  
H356     H      0.927500000000     0.563440000000     0.712670000000     0.0470728  
H357     H      0.883490000000     0.564290000000     0.730600000000     0.0468582  
H358     H      0.857630000000     0.535580000000     0.755870000000     0.0352032  
H359     H      0.907880000000     0.548380000000     0.818040000000     0.0353366  
H360     H      0.933660000000     0.576840000000     0.792760000000     0.0469855  
H361     H      0.811080000000     0.593930000000     0.903510000000     0.0461704  
H362     H      0.834730000000     0.563780000000     0.878100000000     0.0318394  
H363     H      0.765890000000     0.521440000000     0.864220000000     0.0323218  
H364     H      0.742420000000     0.549920000000     0.891350000000     0.046294   
H365     H      0.723690000000     0.587740000000     0.898950000000     0.0461429  
H366     H      0.700150000000     0.612780000000     0.929210000000     0.0319185  
H367     H      0.769470000000     0.627350000000     0.969450000000     0.0323048  
H368     H      0.792910000000     0.600480000000     0.940770000000     0.0463629  
H369     H      0.808860000000     0.396620000000     0.923870000000     0.0470221  
H370     H      0.833170000000     0.425460000000     0.897530000000     0.0355781  
H371     H      0.768280000000     0.433230000000     0.848900000000     0.0352787  
H372     H      0.744070000000     0.404200000000     0.875240000000     0.0467864  
H373     H      0.725910000000     0.405640000000     0.917920000000     0.0470324  
H374     H      0.701750000000     0.379480000000     0.946940000000     0.0357693  
H375     H      0.765180000000     0.327290000000     0.952450000000     0.0353226  
H376     H      0.789190000000     0.353420000000     0.923290000000     0.0467562  
H377     H      0.883030000000     0.403430000000     0.733490000000     0.0467792  
H378     H      0.857170000000     0.432570000000     0.758150000000     0.0354672  
H379     H      0.909500000000     0.424130000000     0.819390000000     0.0355737  
H380     H      0.935360000000     0.395170000000     0.794630000000     0.0469934  
H381     H      0.925990000000     0.405040000000     0.714200000000     0.0469966  
H382     H      0.955250000000     0.379550000000     0.689430000000     0.0356157  
H383     H      0.963810000000     0.326770000000     0.750390000000     0.0355531  
H384     H      0.934360000000     0.352250000000     0.775060000000     0.0467507  
O1       O      0.845300000000     0.458010000000     0.796700000000    -0.385354   
O2       O      0.806820000000     0.512510000000     0.834730000000    -0.384871   
O3       O      0.844770000000     0.512500000000     0.795930000000    -0.384878   
O4       O      0.807500000000     0.458170000000     0.835360000000    -0.385765   
O5       O      0.838120000000     0.459270000000     0.864050000000    -0.386475   
O6       O      0.875680000000     0.512920000000     0.824350000000    -0.387458   
O7       O      0.838150000000     0.513960000000     0.862750000000    -0.385507   
O8       O      0.875790000000     0.458410000000     0.825520000000    -0.386301   
O9       O      0.728160000000     0.657200000000     0.978950000000    -0.384313   
O10      O      0.688950000000     0.696360000000     0.031370000000    -0.384779   
O11      O      0.727790000000     0.657390000000     0.031820000000    -0.384915   
O12      O      0.689310000000     0.696130000000     0.978540000000    -0.384816   
O13      O      0.658820000000     0.666440000000     0.979230000000    -0.386774   
O14      O      0.698170000000     0.626830000000     0.030990000000    -0.386823   
O15      O      0.659670000000     0.665410000000     0.032350000000    -0.38554    
O16      O      0.697270000000     0.627860000000     0.977830000000    -0.385294   
O17      O      0.544320000000     0.809030000000     0.865160000000    -0.385599   
O18      O      0.489310000000     0.844980000000     0.825830000000    -0.387684   
O19      O      0.489740000000     0.807250000000     0.864080000000    -0.385942   
O20      O      0.543510000000     0.847050000000     0.826660000000    -0.386617   
O21      O      0.545540000000     0.816160000000     0.798190000000    -0.385117   
O22      O      0.491800000000     0.776190000000     0.835730000000    -0.384725   
O23      O      0.491020000000     0.814380000000     0.797080000000    -0.384298   
O24      O      0.545970000000     0.778270000000     0.836570000000    -0.386594   
O25      O      0.659440000000     0.012980000000     0.684520000000    -0.387699   
O26      O      0.695890000000     0.958500000000     0.644810000000    -0.385643   
O27      O      0.657600000000     0.958720000000     0.683040000000    -0.387159   
O28      O      0.697340000000     0.013170000000     0.646560000000    -0.386429   
O29      O      0.728160000000     0.010920000000     0.675060000000    -0.384212   
O30      O      0.688150000000     0.956460000000     0.711760000000    -0.384677   
O31      O      0.726340000000     0.956630000000     0.673620000000    -0.386566   
O32      O      0.689770000000     0.011060000000     0.713450000000    -0.384255   
O33      O      0.042820000000     0.655730000000     0.712500000000    -0.384526   
O34      O      0.989160000000     0.692420000000     0.671780000000    -0.384774   
O35      O      0.988620000000     0.654760000000     0.710330000000    -0.386808   
O36      O      0.043670000000     0.693690000000     0.673650000000    -0.384737   
O37      O      0.045460000000     0.662760000000     0.645250000000    -0.387676   
O38      O      0.990400000000     0.623880000000     0.681870000000    -0.385255   
O39      O      0.991270000000     0.661660000000     0.643180000000    -0.386575   
O40      O      0.045020000000     0.625190000000     0.683630000000    -0.386218   
O41      O      0.877110000000     0.805820000000     0.476870000000    -0.387374   
O42      O      0.839200000000     0.844640000000     0.530280000000    -0.386219   
O43      O      0.878110000000     0.806050000000     0.529680000000    -0.387534   
O44      O      0.838470000000     0.844300000000     0.477260000000    -0.387795   
O45      O      0.808670000000     0.813920000000     0.477520000000    -0.385077   
O46      O      0.847800000000     0.776170000000     0.531070000000    -0.384642   
O47      O      0.808920000000     0.814750000000     0.530490000000    -0.386151   
O48      O      0.847560000000     0.775220000000     0.477960000000    -0.385128   
O49      O      0.546110000000     0.123450000000     0.828350000000    -0.385932   
O50      O      0.490520000000     0.161250000000     0.865270000000    -0.387066   
O51      O      0.491650000000     0.123500000000     0.826890000000    -0.387669   
O52      O      0.544730000000     0.161290000000     0.866890000000    -0.387676   
O53      O      0.546290000000     0.191780000000     0.837970000000    -0.385647   
O54      O      0.492230000000     0.154430000000     0.798430000000    -0.385748   
O55      O      0.491790000000     0.192370000000     0.837040000000    -0.385235   
O56      O      0.546620000000     0.154000000000     0.799510000000    -0.386399   
O57      O      0.728110000000     0.313160000000     0.030760000000    -0.38526    
O58      O      0.687830000000     0.276130000000     0.977700000000    -0.385365   
O59      O      0.726560000000     0.314710000000     0.977990000000    -0.386208   
O60      O      0.689070000000     0.274320000000     0.030780000000    -0.384247   
O61      O      0.659270000000     0.304650000000     0.032480000000    -0.388541   
O62      O      0.696530000000     0.344810000000     0.979660000000    -0.386204   
O63      O      0.657710000000     0.306170000000     0.979750000000    -0.387555   
O64      O      0.697790000000     0.343050000000     0.032790000000    -0.387065   
O65      O      0.841150000000     0.511900000000     0.143790000000    -0.386067   
O66      O      0.878380000000     0.457200000000     0.182510000000    -0.387071   
O67      O      0.840710000000     0.457150000000     0.144330000000    -0.385994   
O68      O      0.878990000000     0.511780000000     0.182150000000    -0.386685   
O69      O      0.848640000000     0.511920000000     0.211130000000    -0.386536   
O70      O      0.809500000000     0.458520000000     0.172490000000    -0.38617    
O71      O      0.847510000000     0.457390000000     0.210960000000    -0.385408   
O72      O      0.810740000000     0.512870000000     0.172690000000    -0.386069   
O73      O      0.991160000000     0.662060000000     0.364150000000    -0.386069   
O74      O      0.046160000000     0.625120000000     0.325700000000    -0.387302   
O75      O      0.045740000000     0.662790000000     0.364000000000    -0.386181   
O76      O      0.991710000000     0.624260000000     0.325680000000    -0.386419   
O77      O      0.991640000000     0.654760000000     0.296780000000    -0.386209   
O78      O      0.044410000000     0.694160000000     0.335930000000    -0.38596    
O79      O      0.046050000000     0.656130000000     0.297330000000    -0.385191   
O80      O      0.990230000000     0.692610000000     0.335320000000    -0.385926   
O81      O      0.187090000000     0.775610000000     0.479580000000    -0.3858     
O82      O      0.226370000000     0.815730000000     0.531130000000    -0.3864     
O83      O      0.187610000000     0.777090000000     0.532420000000    -0.386082   
O84      O      0.225910000000     0.814450000000     0.478110000000    -0.385041   
O85      O      0.196150000000     0.844860000000     0.478050000000    -0.387335   
O86      O      0.157380000000     0.807010000000     0.531500000000    -0.386462   
O87      O      0.196060000000     0.845600000000     0.531070000000    -0.38684    
O88      O      0.157640000000     0.806400000000     0.478300000000    -0.386293   
O89      O      0.378990000000     0.957780000000     0.681920000000    -0.386331   
O90      O      0.341810000000     0.013280000000     0.644180000000    -0.386213   
O91      O      0.379680000000     0.012390000000     0.682420000000    -0.386817   
O92      O      0.341100000000     0.958700000000     0.643670000000    -0.386992   
O93      O      0.310430000000     0.958880000000     0.672320000000    -0.38653    
O94      O      0.349170000000     0.012410000000     0.711220000000    -0.38634    
O95      O      0.311210000000     0.013400000000     0.672890000000    -0.385814   
O96      O      0.348410000000     0.957870000000     0.710660000000    -0.385843   
O97      O      0.685230000000     0.012510000000     0.299300000000    -0.384802   
O98      O      0.724030000000     0.957670000000     0.336620000000    -0.385359   
O99      O      0.685900000000     0.957880000000     0.298330000000    -0.385568   
O100     O      0.723320000000     0.012180000000     0.337460000000    -0.386493   
O101     O      0.692540000000     0.011670000000     0.366000000000    -0.385652   
O102     O      0.655750000000     0.956500000000     0.327470000000    -0.387342   
O103     O      0.693670000000     0.957090000000     0.365580000000    -0.387369   
O104     O      0.654380000000     0.010870000000     0.327770000000    -0.387172   
O105     O      0.542910000000     0.775650000000     0.173490000000    -0.38518    
O106     O      0.489980000000     0.814770000000     0.212830000000    -0.385123   
O107     O      0.488680000000     0.776640000000     0.174290000000    -0.385876   
O108     O      0.544220000000     0.813790000000     0.211990000000    -0.385843   
O109     O      0.543520000000     0.845000000000     0.183810000000    -0.386861   
O110     O      0.489550000000     0.806860000000     0.145120000000    -0.386843   
O111     O      0.488930000000     0.844730000000     0.183340000000    -0.385157   
O112     O      0.544150000000     0.807160000000     0.145580000000    -0.385284   
O113     O      0.186990000000     0.511630000000     0.796900000000    -0.385344   
O114     O      0.225200000000     0.457900000000     0.836090000000    -0.385933   
O115     O      0.187020000000     0.457280000000     0.797970000000    -0.386484   
O116     O      0.225310000000     0.512430000000     0.835200000000    -0.385674   
O117     O      0.195070000000     0.512660000000     0.864280000000    -0.387296   
O118     O      0.156360000000     0.458240000000     0.826630000000    -0.38638    
O119     O      0.194490000000     0.458090000000     0.864700000000    -0.386227   
O120     O      0.157050000000     0.512990000000     0.826340000000    -0.385321   
O121     O      0.377420000000     0.663590000000     0.030720000000    -0.386547   
O122     O      0.338790000000     0.624780000000     0.977830000000    -0.386647   
O123     O      0.377250000000     0.663390000000     0.977520000000    -0.38534    
O124     O      0.339000000000     0.624930000000     0.031030000000    -0.385285   
O125     O      0.308080000000     0.654240000000     0.029910000000    -0.385095   
O126     O      0.347940000000     0.694300000000     0.978640000000    -0.38492    
O127     O      0.309240000000     0.655390000000     0.977060000000    -0.385902   
O128     O      0.346810000000     0.693150000000     0.031480000000    -0.385983   
O129     O      0.157700000000     0.513200000000     0.182730000000    -0.387596   
O130     O      0.193500000000     0.457490000000     0.144060000000    -0.385475   
O131     O      0.155390000000     0.458860000000     0.182450000000    -0.386319   
O132     O      0.195440000000     0.512180000000     0.144620000000    -0.385841   
O133     O      0.226370000000     0.510270000000     0.173050000000    -0.384458   
O134     O      0.186080000000     0.457010000000     0.211060000000    -0.384615   
O135     O      0.224050000000     0.456000000000     0.172790000000    -0.386922   
O136     O      0.188180000000     0.511680000000     0.211540000000    -0.384645   
O137     O      0.377040000000     0.305820000000     0.977970000000    -0.386312   
O138     O      0.337640000000     0.344250000000     0.030640000000    -0.386589   
O139     O      0.376600000000     0.305980000000     0.031020000000    -0.387158   
O140     O      0.338140000000     0.344160000000     0.977630000000    -0.386624   
O141     O      0.308230000000     0.313880000000     0.977460000000    -0.384838   
O142     O      0.346910000000     0.275500000000     0.030870000000    -0.384926   
O143     O      0.307770000000     0.313940000000     0.030420000000    -0.385533   
O144     O      0.347290000000     0.275400000000     0.977820000000    -0.385497   
O145     O      0.490730000000     0.192860000000     0.172830000000    -0.384838   
O146     O      0.544990000000     0.153890000000     0.210800000000    -0.384726   
O147     O      0.545170000000     0.191580000000     0.172230000000    -0.386857   
O148     O      0.490530000000     0.155070000000     0.211650000000    -0.385273   
O149     O      0.488970000000     0.124510000000     0.182860000000    -0.386834   
O150     O      0.544450000000     0.160460000000     0.143990000000    -0.385605   
O151     O      0.543170000000     0.122680000000     0.182640000000    -0.387188   
O152     O      0.489970000000     0.162070000000     0.144250000000    -0.387341   
O153     O      0.989300000000     0.315220000000     0.711840000000    -0.385308   
O154     O      0.043360000000     0.276710000000     0.673370000000    -0.385126   
O155     O      0.043700000000     0.314580000000     0.712200000000    -0.385519   
O156     O      0.989130000000     0.277490000000     0.673130000000    -0.386179   
O157     O      0.990090000000     0.308200000000     0.644460000000    -0.386191   
O158     O      0.043950000000     0.345670000000     0.683900000000    -0.387469   
O159     O      0.044690000000     0.308180000000     0.645420000000    -0.385301   
O160     O      0.989510000000     0.345850000000     0.683080000000    -0.385798   
O161     O      0.836990000000     0.125160000000     0.478810000000    -0.386843   
O162     O      0.876910000000     0.164770000000     0.530180000000    -0.386974   
O163     O      0.838460000000     0.126210000000     0.531950000000    -0.385562   
O164     O      0.875520000000     0.163680000000     0.477040000000    -0.385697   
O165     O      0.846270000000     0.194650000000     0.478270000000    -0.38514    
O166     O      0.807600000000     0.155580000000     0.531100000000    -0.385209   
O167     O      0.846420000000     0.194440000000     0.531120000000    -0.385779   
O168     O      0.807410000000     0.155760000000     0.478250000000    -0.385753   
O169     O      0.226400000000     0.155710000000     0.478220000000    -0.384129   
O170     O      0.188810000000     0.196190000000     0.530960000000    -0.384055   
O171     O      0.227580000000     0.157090000000     0.531350000000    -0.384596   
O172     O      0.187880000000     0.194620000000     0.478170000000    -0.386531   
O173     O      0.157810000000     0.164540000000     0.479550000000    -0.385624   
O174     O      0.197370000000     0.127160000000     0.532790000000    -0.387922   
O175     O      0.159020000000     0.165750000000     0.532720000000    -0.386102   
O176     O      0.196410000000     0.125530000000     0.480010000000    -0.386583   
O177     O      0.309500000000     0.013140000000     0.337860000000    -0.384327   
O178     O      0.346450000000     0.959530000000     0.297160000000    -0.384236   
O179     O      0.308760000000     0.958440000000     0.336140000000    -0.384769   
O180     O      0.346950000000     0.013830000000     0.299110000000    -0.386515   
O181     O      0.377880000000     0.012400000000     0.327460000000    -0.385093   
O182     O      0.339710000000     0.957030000000     0.364460000000    -0.387474   
O183     O      0.377030000000     0.957670000000     0.325940000000    -0.385706   
O184     O      0.340310000000     0.011390000000     0.366350000000    -0.38614    
O185     O      0.988780000000     0.344180000000     0.325930000000    -0.387508   
O186     O      0.043550000000     0.307580000000     0.365010000000    -0.385629   
O187     O      0.042970000000     0.346030000000     0.326820000000    -0.386566   
O188     O      0.988980000000     0.306130000000     0.363810000000    -0.385828   
O189     O      0.990930000000     0.275290000000     0.335230000000    -0.384209   
O190     O      0.044920000000     0.315410000000     0.298080000000    -0.38461    
O191     O      0.045090000000     0.277060000000     0.336170000000    -0.386417   
O192     O      0.990380000000     0.313810000000     0.296950000000    -0.384331   


