data_structure

_audit_creation_method RASPA-1.0
_audit_creation_date 2023-5-22
_audit_author_name 'Poobodin Mano'

_cell_length_a    46.2264
_cell_length_b    46.2264
_cell_length_c    46.2261
_cell_angle_alpha 90
_cell_angle_beta  90
_cell_angle_gamma 90
_cell_volume      98779.6

_symmetry_cell_setting          triclinic
_symmetry_space_group_name_Hall 'P 1'
_symmetry_space_group_name_H-M  'P 1'
_symmetry_Int_Tables_number     1

_symmetry_equiv_pos_as_xyz 'x,y,z'

loop_
_atom_site_label
_atom_site_type_symbol
_atom_site_fract_x
_atom_site_fract_y
_atom_site_fract_z
_atom_site_charge
C1       C      0.597160000000     0.320770000000     0.988310000000     0.355143   
C2       C      0.712130000000     0.320760000000     0.987670000000     0.355156   
C3       C      0.654610000000     0.263280000000     0.988410000000     0.355066   
C4       C      0.654700000000     0.378260000000     0.987760000000     0.355097   
C5       C      0.378420000000     0.321050000000     0.987750000000     0.355175   
C6       C      0.263450000000     0.321160000000     0.988220000000     0.355154   
C7       C      0.320920000000     0.263630000000     0.987610000000     0.354954   
C8       C      0.320940000000     0.378600000000     0.988190000000     0.355144   
C9       C      0.712490000000     0.654430000000     0.988200000000     0.35485    
C10      C      0.597520000000     0.654550000000     0.987590000000     0.355153   
C11      C      0.654990000000     0.597000000000     0.988130000000     0.355251   
C12      C      0.655020000000     0.711970000000     0.987480000000     0.355121   
C13      C      0.263810000000     0.654850000000     0.987560000000     0.354911   
C14      C      0.378780000000     0.654810000000     0.988100000000     0.35514    
C15      C      0.321220000000     0.597340000000     0.987650000000     0.355202   
C16      C      0.321350000000     0.712310000000     0.988180000000     0.354916   
C17      C      0.597060000000     0.988950000000     0.654860000000     0.355127   
C18      C      0.712030000000     0.987760000000     0.654680000000     0.355009   
C19      C      0.654580000000     0.988780000000     0.712250000000     0.354896   
C20      C      0.654510000000     0.988040000000     0.597270000000     0.354936   
C21      C      0.378330000000     0.988270000000     0.654570000000     0.355158   
C22      C      0.263360000000     0.987510000000     0.654740000000     0.355005   
C23      C      0.320940000000     0.987550000000     0.712130000000     0.355208   
C24      C      0.320780000000     0.988090000000     0.597160000000     0.355009   
C25      C      0.263600000000     0.988320000000     0.320800000000     0.355226   
C26      C      0.378570000000     0.987500000000     0.321060000000     0.355242   
C27      C      0.320980000000     0.987680000000     0.378420000000     0.354938   
C28      C      0.321230000000     0.988290000000     0.263450000000     0.354822   
C29      C      0.712270000000     0.987860000000     0.321130000000     0.355355   
C30      C      0.597300000000     0.986690000000     0.320930000000     0.355103   
C31      C      0.654730000000     0.987650000000     0.378530000000     0.355292   
C32      C      0.654840000000     0.986790000000     0.263560000000     0.355296   
C33      C      0.987320000000     0.653660000000     0.712260000000     0.355253   
C34      C      0.987810000000     0.653960000000     0.597290000000     0.35516    
C35      C      0.987400000000     0.596300000000     0.654700000000     0.355261   
C36      C      0.987870000000     0.711270000000     0.654880000000     0.355228   
C37      C      0.987420000000     0.262580000000     0.654470000000     0.354786   
C38      C      0.987940000000     0.377560000000     0.654660000000     0.355114   
C39      C      0.987440000000     0.320160000000     0.597070000000     0.355059   
C40      C      0.988070000000     0.320020000000     0.712050000000     0.355102   
C41      C      0.987520000000     0.655610000000     0.378550000000     0.355284   
C42      C      0.988270000000     0.655690000000     0.263580000000     0.355105   
C43      C      0.987620000000     0.713160000000     0.321130000000     0.354962   
C44      C      0.988020000000     0.598180000000     0.321000000000     0.355167   
C45      C      0.987790000000     0.321790000000     0.378340000000     0.355131   
C46      C      0.987230000000     0.322060000000     0.263370000000     0.354957   
C47      C      0.987840000000     0.264470000000     0.320760000000     0.354869   
C48      C      0.987350000000     0.379450000000     0.320930000000     0.355089   
C49      C      0.930310000000     0.321230000000     0.987260000000     0.355685   
C50      C      0.045260000000     0.321330000000     0.988170000000     0.355972   
C51      C      0.988250000000     0.321020000000     0.930230000000     0.355609   
C52      C      0.987320000000     0.321540000000     0.045190000000     0.355758   
C53      C      0.930670000000     0.654300000000     0.988410000000     0.355981   
C54      C      0.045620000000     0.654420000000     0.987440000000     0.355822   
C55      C      0.987640000000     0.654110000000     0.930450000000     0.356061   
C56      C      0.988630000000     0.654610000000     0.045400000000     0.35571    
C57      C      0.045410000000     0.988690000000     0.320920000000     0.355588   
C58      C      0.930450000000     0.989010000000     0.321170000000     0.356114   
C59      C      0.988120000000     0.046310000000     0.321000000000     0.356175   
C60      C      0.987730000000     0.931350000000     0.321100000000     0.355853   
C61      C      0.930200000000     0.986660000000     0.654470000000     0.355829   
C62      C      0.045160000000     0.987110000000     0.654630000000     0.355619   
C63      C      0.987940000000     0.929430000000     0.654610000000     0.355934   
C64      C      0.987420000000     0.044390000000     0.654480000000     0.355611   
C65      C      0.654420000000     0.045100000000     0.988550000000     0.35605    
C66      C      0.654530000000     0.930150000000     0.987250000000     0.355774   
C67      C      0.654500000000     0.986950000000     0.045380000000     0.355723   
C68      C      0.654440000000     0.988310000000     0.930430000000     0.35601    
C69      C      0.321370000000     0.045450000000     0.987350000000     0.355668   
C70      C      0.321490000000     0.930490000000     0.988250000000     0.355875   
C71      C      0.321470000000     0.988420000000     0.045270000000     0.355719   
C72      C      0.321390000000     0.987510000000     0.930320000000     0.356089   
C73      C      0.978930000000     0.124020000000     0.345420000000    -0.0667191  
C74      C      0.988280000000     0.139380000000     0.320930000000     0.0233977  
C75      C      0.997640000000     0.123960000000     0.296480000000    -0.0679283  
C76      C      0.997380000000     0.093730000000     0.296410000000     0.0224588  
C77      C      0.988210000000     0.078320000000     0.320980000000    -0.10507    
C78      C      0.979110000000     0.093790000000     0.345530000000     0.0236228  
C79      C      0.988200000000     0.171410000000     0.320880000000     0.0208925  
C80      C      0.963510000000     0.186720000000     0.329750000000    -0.0660195  
C81      C      0.963320000000     0.216950000000     0.329490000000     0.0235188  
C82      C      0.987990000000     0.232470000000     0.320790000000    -0.106361   
C83      C      0.012770000000     0.217110000000     0.312140000000     0.0248008  
C84      C      0.012790000000     0.186870000000     0.311950000000    -0.0647319  
C85      C      0.962290000000     0.313190000000     0.185760000000    -0.0658831  
C86      C      0.986890000000     0.322050000000     0.170290000000     0.0208828  
C87      C      0.011570000000     0.330960000000     0.185600000000    -0.064814   
C88      C      0.011750000000     0.330770000000     0.215830000000     0.0246471  
C89      C      0.987070000000     0.322110000000     0.231360000000    -0.106244   
C90      C      0.962290000000     0.313440000000     0.216000000000     0.0235236  
C91      C      0.986850000000     0.321960000000     0.138260000000     0.0233543  
C92      C      0.977510000000     0.297440000000     0.122940000000    -0.0666651  
C93      C      0.977850000000     0.297220000000     0.092710000000     0.0235342  
C94      C      0.987100000000     0.321690000000     0.077190000000    -0.104978   
C95      C      0.996170000000     0.346320000000     0.092570000000     0.0223908  
C96      C      0.996270000000     0.346360000000     0.122800000000    -0.0678618  
C97      C      0.012700000000     0.520390000000     0.329090000000    -0.0644363  
C98      C      0.987740000000     0.504940000000     0.320980000000     0.021543   
C99      C      0.962930000000     0.520570000000     0.312830000000    -0.0658287  
C100     C      0.963010000000     0.550800000000     0.312980000000     0.0235698  
C101     C      0.988010000000     0.566160000000     0.320930000000    -0.10629    
C102     C      0.012890000000     0.550640000000     0.328870000000     0.0247609  
C103     C      0.987590000000     0.472690000000     0.320970000000     0.0215302  
C104     C      0.012420000000     0.457060000000     0.312860000000    -0.0646368  
C105     C      0.012360000000     0.426840000000     0.313000000000     0.0247728  
C106     C      0.987350000000     0.411460000000     0.320890000000    -0.106365   
C107     C      0.962440000000     0.426980000000     0.328790000000     0.023584   
C108     C      0.962620000000     0.457220000000     0.329020000000    -0.0656594  
C109     C      0.012060000000     0.790880000000     0.330110000000    -0.064788   
C110     C      0.987400000000     0.806240000000     0.321230000000     0.0207884  
C111     C      0.962780000000     0.790810000000     0.312330000000    -0.0659142  
C112     C      0.962740000000     0.760570000000     0.312540000000     0.0234652  
C113     C      0.987510000000     0.745170000000     0.321190000000    -0.106311   
C114     C      0.012200000000     0.760660000000     0.329870000000     0.0246765  
C115     C      0.987380000000     0.838280000000     0.321220000000     0.0234106  
C116     C      0.996830000000     0.853660000000     0.345650000000    -0.0680119  
C117     C      0.996720000000     0.883900000000     0.345700000000     0.0223587  
C118     C      0.987590000000     0.899340000000     0.321140000000    -0.105196   
C119     C      0.978340000000     0.883900000000     0.296620000000     0.0234793  
C120     C      0.978010000000     0.853660000000     0.296750000000    -0.0668424  
C121     C      0.964070000000     0.646450000000     0.185820000000    -0.066056   
C122     C      0.988800000000     0.655220000000     0.170510000000     0.020891   
C123     C      0.013370000000     0.664180000000     0.185980000000    -0.0647211  
C124     C      0.013300000000     0.664120000000     0.216220000000     0.0247426  
C125     C      0.988480000000     0.655560000000     0.231570000000    -0.10633    
C126     C      0.963820000000     0.646840000000     0.216040000000     0.0235135  
C127     C      0.988940000000     0.655020000000     0.138470000000     0.023356   
C128     C      0.979550000000     0.630490000000     0.123220000000    -0.0666316  
C129     C      0.979710000000     0.630250000000     0.092990000000     0.023477   
C130     C      0.988820000000     0.654730000000     0.077410000000    -0.104864   
C131     C      0.998050000000     0.679340000000     0.092720000000     0.0222827  
C132     C      0.998330000000     0.679390000000     0.122960000000    -0.0678324  
C133     C      0.012600000000     0.329290000000     0.456150000000    -0.064461   
C134     C      0.987650000000     0.321100000000     0.471580000000     0.0215523  
C135     C      0.962800000000     0.313120000000     0.455920000000    -0.0658527  
C136     C      0.962830000000     0.313520000000     0.425700000000     0.0236087  
C137     C      0.987820000000     0.321540000000     0.410360000000    -0.106308   
C138     C      0.012740000000     0.329310000000     0.425910000000     0.024808   
C139     C      0.987540000000     0.320820000000     0.503830000000     0.0215051  
C140     C      0.012380000000     0.312550000000     0.519360000000    -0.064571   
C141     C      0.012360000000     0.312460000000     0.549590000000     0.0246995  
C142     C      0.987380000000     0.320280000000     0.565060000000    -0.106329   
C143     C      0.962460000000     0.328320000000     0.549630000000     0.0235706  
C144     C      0.962600000000     0.328780000000     0.519390000000    -0.0656321  
C145     C      0.963780000000     0.329210000000     0.789790000000    -0.0660827  
C146     C      0.988490000000     0.320430000000     0.805120000000     0.0208732  
C147     C      0.013080000000     0.311480000000     0.789680000000    -0.0647196  
C148     C      0.013050000000     0.311560000000     0.759430000000     0.0246699  
C149     C      0.988240000000     0.320130000000     0.744060000000    -0.10634    
C150     C      0.963570000000     0.328840000000     0.759570000000     0.0235489  
C151     C      0.988590000000     0.320620000000     0.837160000000     0.023336   
C152     C      0.979180000000     0.345140000000     0.852410000000    -0.0667123  
C153     C      0.979320000000     0.345370000000     0.882640000000     0.0234542  
C154     C      0.988440000000     0.320900000000     0.898220000000    -0.105063   
C155     C      0.997690000000     0.296290000000     0.882920000000     0.0222103  
C156     C      0.997990000000     0.296250000000     0.852670000000    -0.0679031  
C157     C      0.977700000000     0.122080000000     0.678810000000    -0.0665832  
C158     C      0.987070000000     0.137470000000     0.654350000000     0.0232947  
C159     C      0.996510000000     0.122070000000     0.629920000000    -0.0678152  
C160     C      0.996390000000     0.091840000000     0.629870000000     0.0223457  
C161     C      0.987270000000     0.076400000000     0.654430000000    -0.104839   
C162     C      0.978020000000     0.091850000000     0.678950000000     0.0234082  
C163     C      0.987110000000     0.169510000000     0.654350000000     0.0208917  
C164     C      0.962500000000     0.184950000000     0.663230000000    -0.0659304  
C165     C      0.962490000000     0.215190000000     0.663030000000     0.0234959  
C166     C      0.987270000000     0.230570000000     0.654400000000    -0.106214   
C167     C      0.011960000000     0.215070000000     0.645720000000     0.0246058  
C168     C      0.011790000000     0.184840000000     0.645480000000    -0.064778   
C169     C      0.962630000000     0.647020000000     0.456220000000    -0.0656403  
C170     C      0.987560000000     0.654960000000     0.471800000000     0.0215055  
C171     C      0.012410000000     0.663230000000     0.456280000000    -0.0645878  
C172     C      0.012400000000     0.663320000000     0.426050000000     0.0247417  
C173     C      0.987430000000     0.655510000000     0.410570000000    -0.106337   
C174     C      0.962510000000     0.647480000000     0.425980000000     0.0236099  
C175     C      0.987660000000     0.654670000000     0.504050000000     0.0215272  
C176     C      0.962810000000     0.662650000000     0.519710000000    -0.0658329  
C177     C      0.962840000000     0.662240000000     0.549930000000     0.0235924  
C178     C      0.987830000000     0.654210000000     0.565270000000    -0.106332   
C179     C      0.012740000000     0.646430000000     0.549720000000     0.0248243  
C180     C      0.012610000000     0.646470000000     0.519480000000    -0.0644466  
C181     C      0.012700000000     0.455320000000     0.646570000000    -0.0644536  
C182     C      0.987750000000     0.470800000000     0.654670000000     0.021534   
C183     C      0.962920000000     0.455190000000     0.662830000000    -0.0658783  
C184     C      0.962980000000     0.424960000000     0.662670000000     0.0236569  
C185     C      0.987960000000     0.409580000000     0.654740000000    -0.106336   
C186     C      0.012860000000     0.425080000000     0.646800000000     0.0247818  
C187     C      0.987620000000     0.503050000000     0.654660000000     0.0215095  
C188     C      0.012460000000     0.518670000000     0.662770000000    -0.0646833  
C189     C      0.012400000000     0.548890000000     0.662620000000     0.0248107  
C190     C      0.987400000000     0.564280000000     0.654730000000    -0.10636    
C191     C      0.962490000000     0.548770000000     0.646830000000     0.0236024  
C192     C      0.962650000000     0.518530000000     0.646600000000    -0.0656382  
C193     C      0.978830000000     0.851710000000     0.630200000000    -0.066789   
C194     C      0.988230000000     0.836370000000     0.654680000000     0.0233751  
C195     C      0.997580000000     0.851790000000     0.679130000000    -0.0680179  
C196     C      0.997280000000     0.882030000000     0.679190000000     0.0223733  
C197     C      0.988070000000     0.897430000000     0.654630000000    -0.105303   
C198     C      0.978980000000     0.881940000000     0.630080000000     0.0235536  
C199     C      0.988170000000     0.804330000000     0.654740000000     0.0208379  
C200     C      0.963480000000     0.789000000000     0.645890000000    -0.066027   
C201     C      0.963310000000     0.758770000000     0.646150000000     0.0234941  
C202     C      0.988000000000     0.743270000000     0.654840000000    -0.106462   
C203     C      0.012780000000     0.758650000000     0.663470000000     0.0247669  
C204     C      0.012770000000     0.788890000000     0.663650000000    -0.0647352  
C205     C      0.962440000000     0.662480000000     0.789900000000    -0.0659761  
C206     C      0.987060000000     0.653630000000     0.805340000000     0.0208238  
C207     C      0.011740000000     0.644750000000     0.790000000000    -0.0648113  
C208     C      0.011880000000     0.644950000000     0.759770000000     0.0246716  
C209     C      0.987180000000     0.653600000000     0.744270000000    -0.106406   
C210     C      0.962410000000     0.662240000000     0.759660000000     0.0235619  
C211     C      0.987060000000     0.653710000000     0.837380000000     0.0233748  
C212     C      0.977710000000     0.678210000000     0.852710000000    -0.0667659  
C213     C      0.978090000000     0.678430000000     0.882950000000     0.0234494  
C214     C      0.987390000000     0.653960000000     0.898440000000    -0.105227   
C215     C      0.996470000000     0.629350000000     0.883050000000     0.0223666  
C216     C      0.996530000000     0.629320000000     0.852810000000    -0.0679935  
C217     C      0.789760000000     0.013210000000     0.312370000000    -0.06477    
C218     C      0.805340000000     0.988710000000     0.321310000000     0.0208651  
C219     C      0.790150000000     0.963950000000     0.330220000000    -0.0660699  
C220     C      0.759920000000     0.963610000000     0.329960000000     0.023529   
C221     C      0.744280000000     0.988190000000     0.321220000000    -0.106416   
C222     C      0.759520000000     0.013040000000     0.312540000000     0.0247682  
C223     C      0.837380000000     0.988940000000     0.321320000000     0.0233739  
C224     C      0.852710000000     0.998340000000     0.296840000000    -0.0679872  
C225     C      0.882950000000     0.998180000000     0.296710000000     0.0224116  
C226     C      0.898440000000     0.989060000000     0.321240000000    -0.105303   
C227     C      0.883050000000     0.979920000000     0.345830000000     0.0235563  
C228     C      0.852820000000     0.979640000000     0.345780000000    -0.0668156  
C229     C      0.645680000000     0.011010000000     0.185800000000    -0.0648539  
C230     C      0.654600000000     0.986340000000     0.170490000000     0.0209418  
C231     C      0.663620000000     0.961790000000     0.185950000000    -0.0659955  
C232     C      0.663470000000     0.961820000000     0.216190000000     0.0236402  
C233     C      0.654760000000     0.986580000000     0.231550000000    -0.106444   
C234     C      0.645970000000     0.011220000000     0.216030000000     0.0247221  
C235     C      0.654520000000     0.986280000000     0.138450000000     0.0233123  
C236     C      0.630020000000     0.995650000000     0.123130000000    -0.0678627  
C237     C      0.629920000000     0.995610000000     0.092890000000     0.0223346  
C238     C      0.654490000000     0.986630000000     0.077390000000    -0.104876   
C239     C      0.679060000000     0.977410000000     0.092760000000     0.0234344  
C240     C      0.678990000000     0.977010000000     0.123000000000    -0.0665975  
C241     C      0.456080000000     0.961900000000     0.313260000000    -0.0658135  
C242     C      0.471810000000     0.986760000000     0.321100000000     0.0215834  
C243     C      0.456450000000     0.011830000000     0.329020000000    -0.0645336  
C244     C      0.426220000000     0.012120000000     0.328830000000     0.0248301  
C245     C      0.410590000000     0.987230000000     0.321120000000    -0.106329   
C246     C      0.425850000000     0.962080000000     0.313460000000     0.0237027  
C247     C      0.504060000000     0.986610000000     0.320920000000     0.0215141  
C248     C      0.519600000000     0.961730000000     0.329140000000    -0.0656225  
C249     C      0.549850000000     0.961640000000     0.328890000000     0.0236248  
C250     C      0.565290000000     0.986530000000     0.320800000000    -0.106393   
C251     C      0.549840000000     0.011410000000     0.312670000000     0.0248288  
C252     C      0.519620000000     0.011390000000     0.312530000000    -0.0646674  
C253     C      0.185840000000     0.964060000000     0.311610000000    -0.0659841  
C254     C      0.170530000000     0.988680000000     0.320680000000     0.0208969  
C255     C      0.185990000000     0.013210000000     0.329740000000    -0.0647884  
C256     C      0.216230000000     0.013200000000     0.329540000000     0.0246696  
C257     C      0.231590000000     0.988480000000     0.320710000000    -0.10641    
C258     C      0.216070000000     0.963870000000     0.311840000000     0.0235137  
C259     C      0.138490000000     0.988740000000     0.320720000000     0.0233463  
C260     C      0.123050000000     0.979450000000     0.296250000000    -0.0666842  
C261     C      0.092810000000     0.979650000000     0.296230000000     0.0234507  
C262     C      0.077420000000     0.988700000000     0.320850000000    -0.104853   
C263     C      0.092910000000     0.997780000000     0.345400000000     0.0223425  
C264     C      0.123150000000     0.998020000000     0.345250000000    -0.0678908  
C265     C      0.297070000000     0.998150000000     0.122940000000    -0.0678469  
C266     C      0.321530000000     0.988790000000     0.138340000000     0.0233793  
C267     C      0.345990000000     0.979390000000     0.122980000000    -0.0666981  
C268     C      0.346070000000     0.979530000000     0.092740000000     0.0235183  
C269     C      0.321510000000     0.988620000000     0.077280000000    -0.104891   
C270     C      0.296970000000     0.997840000000     0.092700000000     0.0223364  
C271     C      0.321490000000     0.988710000000     0.170380000000     0.0208978  
C272     C      0.312570000000     0.013300000000     0.185840000000    -0.0647369  
C273     C      0.312720000000     0.013270000000     0.216080000000     0.0246734  
C274     C      0.321340000000     0.988470000000     0.231440000000    -0.106215   
C275     C      0.330050000000     0.963810000000     0.215920000000     0.0234806  
C276     C      0.330340000000     0.964010000000     0.185690000000    -0.0660194  
C277     C      0.312640000000     0.012860000000     0.519400000000    -0.0644796  
C278     C      0.320760000000     0.987920000000     0.503910000000     0.0214765  
C279     C      0.328920000000     0.963090000000     0.519520000000    -0.0657428  
C280     C      0.328780000000     0.963130000000     0.549740000000     0.0235117  
C281     C      0.320810000000     0.988110000000     0.565140000000    -0.106258   
C282     C      0.312850000000     0.013000000000     0.549640000000     0.024732   
C283     C      0.320800000000     0.987820000000     0.471670000000     0.0214944  
C284     C      0.312690000000     0.962890000000     0.456160000000    -0.0656001  
C285     C      0.312950000000     0.962750000000     0.425920000000     0.0234459  
C286     C      0.320970000000     0.987640000000     0.410450000000    -0.10617    
C287     C      0.328920000000     0.012600000000     0.425870000000     0.0247235  
C288     C      0.329020000000     0.012640000000     0.456090000000    -0.0646344  
C289     C      0.345790000000     0.996550000000     0.852580000000    -0.0679705  
C290     C      0.321310000000     0.987130000000     0.837240000000     0.0233347  
C291     C      0.296890000000     0.977740000000     0.852680000000    -0.0667645  
C292     C      0.296830000000     0.978060000000     0.882920000000     0.0234974  
C293     C      0.321380000000     0.987320000000     0.898310000000    -0.105244   
C294     C      0.345910000000     0.996430000000     0.882810000000     0.0223912  
C295     C      0.321230000000     0.987190000000     0.805210000000     0.0208545  
C296     C      0.330060000000     0.011880000000     0.789870000000    -0.0648245  
C297     C      0.329750000000     0.012070000000     0.759640000000     0.0246709  
C298     C      0.321050000000     0.987390000000     0.744140000000    -0.106362   
C299     C      0.312450000000     0.962600000000     0.759520000000     0.0235118  
C300     C      0.312320000000     0.962590000000     0.789770000000    -0.0659673  
C301     C      0.185590000000     0.011810000000     0.663880000000    -0.0647911  
C302     C      0.170280000000     0.987190000000     0.654820000000     0.0208778  
C303     C      0.185740000000     0.962650000000     0.645770000000    -0.0659368  
C304     C      0.215980000000     0.962650000000     0.645980000000     0.023405   
C305     C      0.231340000000     0.987370000000     0.654800000000    -0.106215   
C306     C      0.215830000000     0.011990000000     0.663650000000     0.0246047  
C307     C      0.138240000000     0.987130000000     0.654790000000     0.0233078  
C308     C      0.122810000000     0.996420000000     0.679250000000    -0.0678332  
C309     C      0.092570000000     0.996210000000     0.679290000000     0.0222369  
C310     C      0.077170000000     0.987140000000     0.654680000000    -0.104797   
C311     C      0.092660000000     0.978060000000     0.630120000000     0.0233852  
C312     C      0.122890000000     0.977830000000     0.630270000000    -0.0665821  
C313     C      0.662670000000     0.012770000000     0.519540000000    -0.0645936  
C314     C      0.654540000000     0.987880000000     0.504030000000     0.0215184  
C315     C      0.646430000000     0.962990000000     0.519600000000    -0.0656846  
C316     C      0.646620000000     0.962960000000     0.549840000000     0.0235744  
C317     C      0.654550000000     0.987920000000     0.565250000000    -0.106244   
C318     C      0.662490000000     0.012850000000     0.549770000000     0.0246794  
C319     C      0.654590000000     0.987860000000     0.471780000000     0.0215508  
C320     C      0.646520000000     0.012740000000     0.456180000000    -0.0645178  
C321     C      0.646780000000     0.012760000000     0.425940000000     0.0248239  
C322     C      0.654730000000     0.987790000000     0.410550000000    -0.106373   
C323     C      0.662640000000     0.962870000000     0.426060000000     0.023589   
C324     C      0.662760000000     0.962960000000     0.456290000000    -0.0658554  
C325     C      0.519370000000     0.013950000000     0.646610000000    -0.0644037  
C326     C      0.503820000000     0.989080000000     0.654810000000     0.0215014  
C327     C      0.519360000000     0.964290000000     0.663200000000    -0.0658029  
C328     C      0.549580000000     0.964250000000     0.663080000000     0.0236084  
C329     C      0.565040000000     0.989120000000     0.654970000000    -0.106264   
C330     C      0.549620000000     0.014030000000     0.646880000000     0.024718   
C331     C      0.471570000000     0.988940000000     0.654610000000     0.0215822  
C332     C      0.455850000000     0.013810000000     0.662440000000    -0.0645943  
C333     C      0.425610000000     0.013650000000     0.662220000000     0.0248816  
C334     C      0.410340000000     0.988520000000     0.654540000000    -0.106455   
C335     C      0.425960000000     0.963620000000     0.646840000000     0.0237468  
C336     C      0.456190000000     0.963880000000     0.646680000000    -0.0658084  
C337     C      0.789520000000     0.962400000000     0.663380000000    -0.0660101  
C338     C      0.805090000000     0.986910000000     0.654430000000     0.0209102  
C339     C      0.789900000000     0.011670000000     0.645550000000    -0.0649618  
C340     C      0.759670000000     0.012010000000     0.645850000000     0.0247572  
C341     C      0.744030000000     0.987430000000     0.654580000000    -0.106453   
C342     C      0.759280000000     0.962570000000     0.663230000000     0.0235802  
C343     C      0.837130000000     0.986680000000     0.654390000000     0.0233242  
C344     C      0.852490000000     0.977270000000     0.678860000000    -0.0667828  
C345     C      0.882730000000     0.977450000000     0.678960000000     0.0234748  
C346     C      0.898190000000     0.986590000000     0.654420000000    -0.10516    
C347     C      0.882780000000     0.995730000000     0.629840000000     0.0222947  
C348     C      0.852540000000     0.995990000000     0.629920000000    -0.0679646  
C349     C      0.645470000000     0.964440000000     0.789980000000    -0.0660524  
C350     C      0.654400000000     0.989090000000     0.805320000000     0.0208256  
C351     C      0.663380000000     0.013670000000     0.789890000000    -0.0646956  
C352     C      0.663210000000     0.013690000000     0.759640000000     0.0246459  
C353     C      0.654500000000     0.988940000000     0.744260000000    -0.106297   
C354     C      0.645740000000     0.964280000000     0.759750000000     0.0235019  
C355     C      0.654360000000     0.989100000000     0.837360000000     0.0234011  
C356     C      0.629890000000     0.979680000000     0.852700000000    -0.0668204  
C357     C      0.629820000000     0.979680000000     0.882930000000     0.0235612  
C358     C      0.654400000000     0.988660000000     0.898420000000    -0.105277   
C359     C      0.678940000000     0.997930000000     0.883030000000     0.0223755  
C360     C      0.678830000000     0.998370000000     0.852790000000    -0.0680644  
C361     C      0.297110000000     0.852820000000     0.998000000000    -0.0679258  
C362     C      0.321560000000     0.837420000000     0.988620000000     0.0233349  
C363     C      0.346010000000     0.852790000000     0.979190000000    -0.0667636  
C364     C      0.346090000000     0.883030000000     0.979320000000     0.0234509  
C365     C      0.321530000000     0.898480000000     0.988440000000    -0.105164   
C366     C      0.297000000000     0.883060000000     0.997690000000     0.0222941  
C367     C      0.321530000000     0.805380000000     0.988550000000     0.0208822  
C368     C      0.312640000000     0.789930000000     0.013150000000    -0.0647066  
C369     C      0.312810000000     0.759690000000     0.013140000000     0.0246617  
C370     C      0.321420000000     0.744320000000     0.988340000000    -0.106239   
C371     C      0.330100000000     0.759840000000     0.963660000000     0.0234756  
C372     C      0.330370000000     0.790070000000     0.963850000000    -0.0660939  
C373     C      0.123370000000     0.630070000000     0.996560000000    -0.0677792  
C374     C      0.138700000000     0.654520000000     0.987090000000     0.0233118  
C375     C      0.123250000000     0.678920000000     0.977640000000    -0.0666182  
C376     C      0.093020000000     0.678970000000     0.977940000000     0.0234702  
C377     C      0.077630000000     0.654440000000     0.987240000000    -0.104876   
C378     C      0.093130000000     0.629930000000     0.996420000000     0.0222818  
C379     C      0.170730000000     0.654610000000     0.987170000000     0.0208833  
C380     C      0.186050000000     0.645830000000     0.011890000000    -0.0648112  
C381     C      0.216280000000     0.646120000000     0.012090000000     0.0246212  
C382     C      0.231800000000     0.654770000000     0.987400000000    -0.106221   
C383     C      0.216430000000     0.663350000000     0.962590000000     0.0234814  
C384     C      0.186190000000     0.663490000000     0.962570000000    -0.065894   
C385     C      0.456540000000     0.646650000000     0.012870000000    -0.0644581  
C386     C      0.472020000000     0.654700000000     0.987900000000     0.0215302  
C387     C      0.456420000000     0.662840000000     0.963070000000    -0.0657864  
C388     C      0.426190000000     0.662720000000     0.963120000000     0.0235529  
C389     C      0.410800000000     0.654840000000     0.988120000000    -0.10628    
C390     C      0.426300000000     0.646910000000     0.013030000000     0.0247384  
C391     C      0.504270000000     0.654660000000     0.987770000000     0.0215004  
C392     C      0.519900000000     0.662790000000     0.012600000000    -0.0645832  
C393     C      0.550120000000     0.662600000000     0.012550000000     0.0247826  
C394     C      0.565500000000     0.654650000000     0.987570000000    -0.106308   
C395     C      0.549990000000     0.646740000000     0.962660000000     0.0235314  
C396     C      0.519740000000     0.646550000000     0.962820000000    -0.0656563  
C397     C      0.645930000000     0.789740000000     0.011710000000    -0.064862   
C398     C      0.654760000000     0.805040000000     0.986990000000     0.0208538  
C399     C      0.663700000000     0.789570000000     0.962420000000    -0.0659962  
C400     C      0.663560000000     0.759320000000     0.962480000000     0.0235594  
C401     C      0.654950000000     0.743980000000     0.987290000000    -0.106403   
C402     C      0.646240000000     0.759520000000     0.011940000000     0.0247196  
C403     C      0.654650000000     0.837080000000     0.986870000000     0.0233741  
C404     C      0.630160000000     0.852400000000     0.996270000000    -0.0680096  
C405     C      0.630020000000     0.882630000000     0.996120000000     0.0223505  
C406     C      0.654550000000     0.898140000000     0.987020000000    -0.105161   
C407     C      0.679110000000     0.882760000000     0.977780000000     0.0234681  
C408     C      0.679070000000     0.852520000000     0.977490000000    -0.0667905  
C409     C      0.790090000000     0.663220000000     0.013200000000    -0.0647844  
C410     C      0.805560000000     0.654260000000     0.988640000000     0.0208724  
C411     C      0.790270000000     0.645350000000     0.963950000000    -0.0660598  
C412     C      0.760040000000     0.645620000000     0.963730000000     0.0234312  
C413     C      0.744500000000     0.654360000000     0.988380000000    -0.106255   
C414     C      0.759850000000     0.663040000000     0.013160000000     0.0247237  
C415     C      0.837600000000     0.654230000000     0.988730000000     0.0233383  
C416     C      0.852990000000     0.678710000000     0.998050000000    -0.0680151  
C417     C      0.883230000000     0.678810000000     0.997760000000     0.0223814  
C418     C      0.898660000000     0.654260000000     0.988600000000    -0.105255   
C419     C      0.883210000000     0.629670000000     0.979560000000     0.0235038  
C420     C      0.852980000000     0.629750000000     0.979410000000    -0.0667342  
C421     C      0.312900000000     0.456240000000     0.963170000000    -0.0658356  
C422     C      0.321050000000     0.471840000000     0.988000000000     0.0215847  
C423     C      0.329100000000     0.456360000000     0.012960000000    -0.0644942  
C424     C      0.328830000000     0.426110000000     0.013120000000     0.024833   
C425     C      0.320910000000     0.410620000000     0.988220000000    -0.106327   
C426     C      0.313020000000     0.426010000000     0.963220000000     0.0235878  
C427     C      0.321100000000     0.504090000000     0.987870000000     0.0214575  
C428     C      0.329200000000     0.519560000000     0.962910000000    -0.0655416  
C429     C      0.329020000000     0.549800000000     0.962740000000     0.0235455  
C430     C      0.321120000000     0.565320000000     0.987640000000    -0.106264   
C431     C      0.313180000000     0.549950000000     0.012640000000     0.0246891  
C432     C      0.312980000000     0.519720000000     0.012690000000    -0.0645577  
C433     C      0.185810000000     0.312480000000     0.013160000000    -0.0647296  
C434     C      0.170370000000     0.321350000000     0.988540000000     0.0209013  
C435     C      0.185710000000     0.330160000000     0.963840000000    -0.0660183  
C436     C      0.215940000000     0.329890000000     0.963670000000     0.0235407  
C437     C      0.231440000000     0.321240000000     0.988360000000    -0.106343   
C438     C      0.216060000000     0.312650000000     0.013160000000     0.0247174  
C439     C      0.138340000000     0.321390000000     0.988590000000     0.0233478  
C440     C      0.122930000000     0.296960000000     0.998020000000    -0.067812   
C441     C      0.092690000000     0.296850000000     0.997690000000     0.0223249  
C442     C      0.077270000000     0.321360000000     0.988380000000    -0.104937   
C443     C      0.092740000000     0.345900000000     0.979220000000     0.0235016  
C444     C      0.122970000000     0.345820000000     0.979110000000    -0.0666737  
C445     C      0.345740000000     0.123190000000     0.996460000000    -0.0678324  
C446     C      0.321260000000     0.138520000000     0.987070000000     0.0233422  
C447     C      0.296830000000     0.123080000000     0.977680000000    -0.0666184  
C448     C      0.296790000000     0.092840000000     0.977960000000     0.0234789  
C449     C      0.321350000000     0.077460000000     0.987180000000    -0.104867   
C450     C      0.345880000000     0.092950000000     0.996290000000     0.022338   
C451     C      0.321160000000     0.170560000000     0.987170000000     0.0209158  
C452     C      0.329990000000     0.185860000000     0.011880000000    -0.064793   
C453     C      0.329690000000     0.216090000000     0.012100000000     0.0246193  
C454     C      0.320990000000     0.231620000000     0.987430000000    -0.106235   
C455     C      0.312380000000     0.216260000000     0.962630000000     0.0235276  
C456     C      0.312240000000     0.186020000000     0.962590000000    -0.0659209  
C457     C      0.646820000000     0.519260000000     0.012950000000    -0.0644544  
C458     C      0.654870000000     0.503750000000     0.988000000000     0.0215225  
C459     C      0.663020000000     0.519340000000     0.963160000000    -0.0658179  
C460     C      0.662910000000     0.549560000000     0.963190000000     0.0235761  
C461     C      0.655020000000     0.564980000000     0.988180000000    -0.106338   
C462     C      0.647090000000     0.549500000000     0.013090000000     0.024829   
C463     C      0.654820000000     0.471500000000     0.987890000000     0.0214928  
C464     C      0.662940000000     0.455890000000     0.012730000000    -0.0645883  
C465     C      0.662740000000     0.425670000000     0.012700000000     0.0247679  
C466     C      0.654800000000     0.410280000000     0.987720000000    -0.10631    
C467     C      0.646900000000     0.425770000000     0.962810000000     0.0235458  
C468     C      0.646720000000     0.456020000000     0.962950000000    -0.0655796  
C469     C      0.519400000000     0.328940000000     0.013090000000    -0.0644452  
C470     C      0.503910000000     0.320870000000     0.988130000000     0.0215359  
C471     C      0.519520000000     0.312700000000     0.963310000000    -0.0658289  
C472     C      0.549740000000     0.312820000000     0.963360000000     0.0236451  
C473     C      0.565140000000     0.320730000000     0.988340000000    -0.106301   
C474     C      0.549650000000     0.328670000000     0.013250000000     0.0247237  
C475     C      0.471670000000     0.320930000000     0.987990000000     0.0214753  
C476     C      0.456030000000     0.312830000000     0.012820000000    -0.0645536  
C477     C      0.425800000000     0.313030000000     0.012760000000     0.0246836  
C478     C      0.410440000000     0.320950000000     0.987750000000    -0.106254   
C479     C      0.425970000000     0.328840000000     0.962850000000     0.0235218  
C480     C      0.456210000000     0.329020000000     0.963030000000    -0.0655621  
C481     C      0.852580000000     0.345620000000     0.996340000000    -0.0678697  
C482     C      0.837240000000     0.321110000000     0.987040000000     0.0233021  
C483     C      0.852670000000     0.296660000000     0.977710000000    -0.0667205  
C484     C      0.882910000000     0.296620000000     0.977960000000     0.0234222  
C485     C      0.898300000000     0.321210000000     0.987100000000    -0.105074   
C486     C      0.882810000000     0.345770000000     0.996150000000     0.0222763  
C487     C      0.805200000000     0.321010000000     0.987170000000     0.0209076  
C488     C      0.789920000000     0.329900000000     0.011870000000    -0.0648979  
C489     C      0.759690000000     0.329590000000     0.012110000000     0.0247114  
C490     C      0.744140000000     0.320840000000     0.987480000000    -0.106363   
C491     C      0.759480000000     0.312170000000     0.962680000000     0.0235375  
C492     C      0.789720000000     0.312030000000     0.962620000000    -0.0659787  
C493     C      0.629890000000     0.122810000000     0.979590000000    -0.0667413  
C494     C      0.654360000000     0.138170000000     0.988980000000     0.0234031  
C495     C      0.678810000000     0.122770000000     0.998340000000    -0.0678893  
C496     C      0.678910000000     0.092530000000     0.998030000000     0.0223621  
C497     C      0.654370000000     0.077110000000     0.988800000000    -0.105011   
C498     C      0.629810000000     0.092570000000     0.979720000000     0.0235785  
C499     C      0.654410000000     0.170210000000     0.988870000000     0.020905   
C500     C      0.645540000000     0.185500000000     0.964170000000    -0.0660686  
C501     C      0.645820000000     0.215730000000     0.963950000000     0.0235559  
C502     C      0.654530000000     0.231270000000     0.988600000000    -0.106359   
C503     C      0.663170000000     0.215930000000     0.013400000000     0.0247721  
C504     C      0.663340000000     0.185690000000     0.013450000000    -0.0647655  
Cu1      Cu     0.654430000000     0.320550000000     0.961240000000     0.838173   
Cu2      Cu     0.654860000000     0.320990000000     0.014830000000     0.840671   
Cu3      Cu     0.321110000000     0.320910000000     0.014740000000     0.840611   
Cu4      Cu     0.320750000000     0.321310000000     0.961150000000     0.838346   
Cu5      Cu     0.654800000000     0.654710000000     0.014650000000     0.840843   
Cu6      Cu     0.655210000000     0.654260000000     0.961050000000     0.838366   
Cu7      Cu     0.321490000000     0.655020000000     0.961080000000     0.838185   
Cu8      Cu     0.321100000000     0.654630000000     0.014670000000     0.840589   
Cu9      Cu     0.654210000000     0.961600000000     0.655000000000     0.838945   
Cu10     Cu     0.654880000000     0.015190000000     0.654520000000     0.840144   
Cu11     Cu     0.320680000000     0.014650000000     0.654850000000     0.84048    
Cu12     Cu     0.321000000000     0.961060000000     0.654460000000     0.838382   
Cu13     Cu     0.320910000000     0.961150000000     0.320720000000     0.838108   
Cu14     Cu     0.321260000000     0.014740000000     0.321150000000     0.840731   
Cu15     Cu     0.654460000000     0.014030000000     0.320770000000     0.841366   
Cu16     Cu     0.655120000000     0.960440000000     0.321310000000     0.83778    
Cu17     Cu     0.960800000000     0.653960000000     0.654600000000     0.838436   
Cu18     Cu     0.014400000000     0.653610000000     0.654960000000     0.840755   
Cu19     Cu     0.960920000000     0.320260000000     0.654780000000     0.838296   
Cu20     Cu     0.014510000000     0.319880000000     0.654350000000     0.840501   
Cu21     Cu     0.014650000000     0.655830000000     0.321310000000     0.840547   
Cu22     Cu     0.961060000000     0.655510000000     0.320820000000     0.838194   
Cu23     Cu     0.960760000000     0.321770000000     0.321050000000     0.838459   
Cu24     Cu     0.014350000000     0.322140000000     0.320650000000     0.840573   
Cu25     Cu     0.987760000000     0.348060000000     0.987590000000     0.837384   
Cu26     Cu     0.987810000000     0.294490000000     0.987830000000     0.836936   
Cu27     Cu     0.988120000000     0.681150000000     0.987810000000     0.836833   
Cu28     Cu     0.988170000000     0.627570000000     0.988040000000     0.837514   
Cu29     Cu     0.987870000000     0.988810000000     0.294250000000     0.836953   
Cu30     Cu     0.987990000000     0.988860000000     0.347830000000     0.837524   
Cu31     Cu     0.987720000000     0.986880000000     0.627760000000     0.837346   
Cu32     Cu     0.987640000000     0.986940000000     0.681340000000     0.836773   
Cu33     Cu     0.627690000000     0.987600000000     0.987920000000     0.837672   
Cu34     Cu     0.681270000000     0.987650000000     0.987890000000     0.836691   
Cu35     Cu     0.294640000000     0.987940000000     0.987810000000     0.836852   
Cu36     Cu     0.348210000000     0.988000000000     0.987780000000     0.837419   
H1       H      0.004780000000     0.135320000000     0.277270000000     0.0487182  
H2       H      0.004610000000     0.082440000000     0.277190000000     0.0365216  
H3       H      0.971840000000     0.082550000000     0.364770000000     0.0351193  
H4       H      0.971790000000     0.135420000000     0.364610000000     0.0473792  
H5       H      0.944210000000     0.175290000000     0.336550000000     0.0471048  
H6       H      0.943920000000     0.228150000000     0.336360000000     0.0346904  
H7       H      0.032090000000     0.228440000000     0.305240000000     0.0350417  
H8       H      0.032160000000     0.175540000000     0.305180000000     0.0473227  
H9       H      0.030880000000     0.337700000000     0.174160000000     0.047216   
H10      H      0.031150000000     0.337650000000     0.227020000000     0.0347035  
H11      H      0.942960000000     0.306570000000     0.227330000000     0.0350347  
H12      H      0.942920000000     0.306390000000     0.174440000000     0.0471789  
H13      H      0.970320000000     0.278290000000     0.134380000000     0.0473269  
H14      H      0.970640000000     0.277950000000     0.081490000000     0.0351214  
H15      H      0.003500000000     0.365490000000     0.081250000000     0.0365723  
H16      H      0.003410000000     0.365600000000     0.134120000000     0.04871    
H17      H      0.943480000000     0.509510000000     0.305920000000     0.0463347  
H18      H      0.943540000000     0.562120000000     0.306510000000     0.0347502  
H19      H      0.032430000000     0.561840000000     0.335330000000     0.0350155  
H20      H      0.032060000000     0.509170000000     0.336010000000     0.0464624  
H21      H      0.031880000000     0.468130000000     0.305990000000     0.0463727  
H22      H      0.031840000000     0.415530000000     0.306560000000     0.0347538  
H23      H      0.942890000000     0.415770000000     0.335200000000     0.034984   
H24      H      0.943250000000     0.468430000000     0.335910000000     0.0464379  
H25      H      0.943430000000     0.802160000000     0.305560000000     0.0471348  
H26      H      0.943410000000     0.749270000000     0.305650000000     0.0350099  
H27      H      0.031590000000     0.749430000000     0.336740000000     0.0346596  
H28      H      0.031390000000     0.802290000000     0.336880000000     0.0470881  
H29      H      0.003990000000     0.842290000000     0.364850000000     0.0486319  
H30      H      0.004050000000     0.895160000000     0.364900000000     0.0363149  
H31      H      0.971090000000     0.895160000000     0.277400000000     0.0348679  
H32      H      0.970810000000     0.842280000000     0.277580000000     0.0472636  
H33      H      0.032770000000     0.670880000000     0.174660000000     0.0472839  
H34      H      0.032600000000     0.671040000000     0.227560000000     0.0350061  
H35      H      0.944400000000     0.640030000000     0.227230000000     0.0346959  
H36      H      0.944790000000     0.639630000000     0.174380000000     0.0471222  
H37      H      0.972380000000     0.611350000000     0.134700000000     0.0473375  
H38      H      0.972400000000     0.610980000000     0.081830000000     0.0351619  
H39      H      0.005280000000     0.698510000000     0.081350000000     0.0365069  
H40      H      0.005490000000     0.698650000000     0.134240000000     0.0486214  
H41      H      0.943360000000     0.306150000000     0.466960000000     0.0463364  
H42      H      0.943330000000     0.307160000000     0.414360000000     0.034744   
H43      H      0.032280000000     0.335820000000     0.414730000000     0.0349808  
H44      H      0.031990000000     0.336080000000     0.467400000000     0.0464656  
H45      H      0.031820000000     0.305740000000     0.508210000000     0.046348   
H46      H      0.031850000000     0.305920000000     0.560830000000     0.0347394  
H47      H      0.942940000000     0.334690000000     0.560920000000     0.0350076  
H48      H      0.943220000000     0.335780000000     0.508260000000     0.0464216  
H49      H      0.032470000000     0.304780000000     0.801010000000     0.0472366  
H50      H      0.032360000000     0.304650000000     0.748110000000     0.0350128  
H51      H      0.944150000000     0.335660000000     0.748360000000     0.0346638  
H52      H      0.944480000000     0.336020000000     0.801210000000     0.047051   
H53      H      0.972000000000     0.364280000000     0.840930000000     0.0472369  
H54      H      0.971990000000     0.364630000000     0.893800000000     0.0349239  
H55      H      0.004940000000     0.277130000000     0.894290000000     0.0363182  
H56      H      0.005180000000     0.277000000000     0.841400000000     0.0485741  
H57      H      0.003670000000     0.133450000000     0.610720000000     0.0486848  
H58      H      0.003720000000     0.080570000000     0.610670000000     0.0365765  
H59      H      0.970770000000     0.080580000000     0.698180000000     0.0351018  
H60      H      0.970490000000     0.133470000000     0.697990000000     0.0472346  
H61      H      0.943140000000     0.173610000000     0.670000000000     0.0471873  
H62      H      0.943170000000     0.226510000000     0.669920000000     0.0350238  
H63      H      0.031360000000     0.226280000000     0.638860000000     0.0347103  
H64      H      0.031110000000     0.173420000000     0.638710000000     0.0471619  
H65      H      0.031850000000     0.670030000000     0.467440000000     0.046332   
H66      H      0.031910000000     0.669850000000     0.414830000000     0.0347182  
H67      H      0.942990000000     0.641120000000     0.414690000000     0.0349865  
H68      H      0.943240000000     0.640020000000     0.467340000000     0.0464102  
H69      H      0.943370000000     0.669630000000     0.508670000000     0.0463077  
H70      H      0.943340000000     0.668590000000     0.561280000000     0.0347306  
H71      H      0.032280000000     0.639920000000     0.560900000000     0.0349817  
H72      H      0.032000000000     0.639670000000     0.508230000000     0.0464525  
H73      H      0.943480000000     0.466270000000     0.669730000000     0.046334   
H74      H      0.943490000000     0.413660000000     0.669140000000     0.0347121  
H75      H      0.032390000000     0.413860000000     0.640340000000     0.0349955  
H76      H      0.032070000000     0.466530000000     0.639660000000     0.0464594  
H77      H      0.031910000000     0.507590000000     0.669640000000     0.046374   
H78      H      0.031890000000     0.560200000000     0.669060000000     0.0347173  
H79      H      0.942940000000     0.559990000000     0.640420000000     0.0349888  
H80      H      0.943270000000     0.507320000000     0.639720000000     0.0464163  
H81      H      0.004750000000     0.840440000000     0.698340000000     0.0485635  
H82      H      0.004510000000     0.893330000000     0.698400000000     0.0362431  
H83      H      0.971680000000     0.893170000000     0.610850000000     0.0348914  
H84      H      0.971690000000     0.840300000000     0.611010000000     0.0472722  
H85      H      0.944170000000     0.800420000000     0.639100000000     0.0470221  
H86      H      0.943920000000     0.747560000000     0.639300000000     0.0346641  
H87      H      0.032110000000     0.747340000000     0.670360000000     0.0349789  
H88      H      0.032140000000     0.800230000000     0.670410000000     0.0472188  
H89      H      0.031070000000     0.638010000000     0.801420000000     0.0471125  
H90      H      0.031280000000     0.638100000000     0.748560000000     0.0346601  
H91      H      0.943070000000     0.669100000000     0.748350000000     0.0349589  
H92      H      0.943080000000     0.669250000000     0.801240000000     0.0471172  
H93      H      0.970480000000     0.697360000000     0.841290000000     0.0471711  
H94      H      0.970870000000     0.697690000000     0.894170000000     0.0348191  
H95      H      0.003840000000     0.610190000000     0.894350000000     0.0363257  
H96      H      0.003680000000     0.610090000000     0.841480000000     0.0486294  
H97      H      0.801680000000     0.944720000000     0.337030000000     0.0470583  
H98      H      0.748820000000     0.944160000000     0.336850000000     0.0346606  
H99      H      0.748090000000     0.032290000000     0.305610000000     0.034998   
H100     H      0.800980000000     0.032630000000     0.305570000000     0.047243   
H101     H      0.841290000000     0.005440000000     0.277640000000     0.0485868  
H102     H      0.894170000000     0.005440000000     0.277460000000     0.0362767  
H103     H      0.894350000000     0.972680000000     0.365040000000     0.0348754  
H104     H      0.841480000000     0.972460000000     0.364990000000     0.0472813  
H105     H      0.670440000000     0.942440000000     0.174620000000     0.0471944  
H106     H      0.670440000000     0.942530000000     0.227530000000     0.0349522  
H107     H      0.639050000000     0.030610000000     0.227220000000     0.0347014  
H108     H      0.638820000000     0.030290000000     0.174370000000     0.0471989  
H109     H      0.610820000000     0.002720000000     0.134550000000     0.0487218  
H110     H      0.610680000000     0.002900000000     0.081690000000     0.0366066  
H111     H      0.698300000000     0.970270000000     0.081450000000     0.0350797  
H112     H      0.698220000000     0.969860000000     0.134340000000     0.0472417  
H113     H      0.467730000000     0.031230000000     0.335730000000     0.0463953  
H114     H      0.415110000000     0.031770000000     0.335100000000     0.0347421  
H115     H      0.414430000000     0.942590000000     0.307190000000     0.0347175  
H116     H      0.467080000000     0.942350000000     0.306540000000     0.0463744  
H117     H      0.508440000000     0.942390000000     0.336210000000     0.0464578  
H118     H      0.561120000000     0.942180000000     0.335480000000     0.0349502  
H119     H      0.561090000000     0.030870000000     0.306050000000     0.0347128  
H120     H      0.508500000000     0.030760000000     0.305490000000     0.0463643  
H121     H      0.174670000000     0.032530000000     0.336660000000     0.0472615  
H122     H      0.227550000000     0.032470000000     0.336580000000     0.0349582  
H123     H      0.227270000000     0.944520000000     0.304830000000     0.0350379  
H124     H      0.174410000000     0.944800000000     0.304700000000     0.0471627  
H125     H      0.134390000000     0.972370000000     0.277010000000     0.0473178  
H126     H      0.081510000000     0.972450000000     0.277010000000     0.0351542  
H127     H      0.081690000000     0.004960000000     0.364680000000     0.0365981  
H128     H      0.134560000000     0.005090000000     0.364450000000     0.0487561  
H129     H      0.365180000000     0.972240000000     0.134370000000     0.0473733  
H130     H      0.365290000000     0.972220000000     0.081490000000     0.0351517  
H131     H      0.277740000000     0.005060000000     0.081420000000     0.0365538  
H132     H      0.277870000000     0.005320000000     0.134310000000     0.0486802  
H133     H      0.305810000000     0.032670000000     0.174520000000     0.0473244  
H134     H      0.305820000000     0.032580000000     0.227410000000     0.0350724  
H135     H      0.336900000000     0.944400000000     0.227120000000     0.0347187  
H136     H      0.337130000000     0.944710000000     0.174260000000     0.0471181  
H137     H      0.335840000000     0.943660000000     0.508420000000     0.0463773  
H138     H      0.335270000000     0.943650000000     0.561030000000     0.0348948  
H139     H      0.306370000000     0.032530000000     0.560870000000     0.0350631  
H140     H      0.305720000000     0.032230000000     0.508200000000     0.0464202  
H141     H      0.305730000000     0.943520000000     0.467350000000     0.0463405  
H142     H      0.306490000000     0.943230000000     0.414680000000     0.0350699  
H143     H      0.335450000000     0.032080000000     0.414590000000     0.034885   
H144     H      0.335930000000     0.032060000000     0.467200000000     0.0464545  
H145     H      0.277680000000     0.970550000000     0.841340000000     0.0472179  
H146     H      0.277620000000     0.970820000000     0.894230000000     0.0348597  
H147     H      0.365130000000     0.003760000000     0.894030000000     0.0363322  
H148     H      0.364960000000     0.003720000000     0.841160000000     0.0486307  
H149     H      0.336850000000     0.031190000000     0.801290000000     0.047131   
H150     H      0.336590000000     0.031480000000     0.748430000000     0.0346943  
H151     H      0.305550000000     0.943280000000     0.748210000000     0.0350075  
H152     H      0.305580000000     0.943220000000     0.801100000000     0.0471515  
H153     H      0.174410000000     0.943330000000     0.638860000000     0.0471396  
H154     H      0.227300000000     0.943370000000     0.638960000000     0.0349711  
H155     H      0.227030000000     0.031340000000     0.670660000000     0.0350625  
H156     H      0.174170000000     0.031070000000     0.670780000000     0.0472649  
H157     H      0.134150000000     0.003520000000     0.698490000000     0.0486113  
H158     H      0.081280000000     0.003410000000     0.698510000000     0.036548   
H159     H      0.081430000000     0.970860000000     0.610860000000     0.0352013  
H160     H      0.134300000000     0.970750000000     0.611060000000     0.0473395  
H161     H      0.639530000000     0.943580000000     0.508470000000     0.046446   
H162     H      0.640170000000     0.943470000000     0.561130000000     0.0350274  
H163     H      0.668950000000     0.032380000000     0.561000000000     0.0347432  
H164     H      0.669580000000     0.032170000000     0.508380000000     0.0463392  
H165     H      0.639590000000     0.032160000000     0.467280000000     0.0464856  
H166     H      0.640340000000     0.032250000000     0.414630000000     0.035001   
H167     H      0.669120000000     0.943340000000     0.414850000000     0.0347397  
H168     H      0.669640000000     0.943570000000     0.467470000000     0.0463348  
H169     H      0.508220000000     0.944920000000     0.670230000000     0.0462762  
H170     H      0.560810000000     0.944780000000     0.669700000000     0.0347033  
H171     H      0.560910000000     0.033480000000     0.640300000000     0.0349893  
H172     H      0.508230000000     0.033300000000     0.639540000000     0.0464972  
H173     H      0.466850000000     0.033360000000     0.669180000000     0.0463772  
H174     H      0.414200000000     0.033140000000     0.668480000000     0.0346918  
H175     H      0.414840000000     0.943970000000     0.640560000000     0.0347127  
H176     H      0.467470000000     0.944490000000     0.639970000000     0.0463936  
H177     H      0.801420000000     0.030900000000     0.638740000000     0.0471828  
H178     H      0.748570000000     0.031470000000     0.638980000000     0.0346393  
H179     H      0.747850000000     0.943320000000     0.670160000000     0.0349592  
H180     H      0.800750000000     0.942980000000     0.670160000000     0.0471284  
H181     H      0.841090000000     0.970160000000     0.698060000000     0.0471851  
H182     H      0.893970000000     0.970200000000     0.698200000000     0.0348156  
H183     H      0.894060000000     0.002980000000     0.610630000000     0.036349   
H184     H      0.841190000000     0.003170000000     0.610720000000     0.0486435  
H185     H      0.670200000000     0.033010000000     0.801240000000     0.0471936  
H186     H      0.670160000000     0.033000000000     0.748330000000     0.0349856  
H187     H      0.638820000000     0.944900000000     0.748540000000     0.0346781  
H188     H      0.638630000000     0.945140000000     0.801380000000     0.0470289  
H189     H      0.610680000000     0.972600000000     0.841290000000     0.0472666  
H190     H      0.610600000000     0.972340000000     0.894150000000     0.0348992  
H191     H      0.698180000000     0.005080000000     0.894330000000     0.036227   
H192     H      0.698030000000     0.005560000000     0.841450000000     0.0485804  
H193     H      0.365200000000     0.841410000000     0.972030000000     0.0472752  
H194     H      0.365290000000     0.894280000000     0.971990000000     0.03491    
H195     H      0.277780000000     0.894330000000     0.004930000000     0.036297   
H196     H      0.277920000000     0.841450000000     0.005200000000     0.0485763  
H197     H      0.305890000000     0.801260000000     0.032530000000     0.0472185  
H198     H      0.305920000000     0.748360000000     0.032460000000     0.03504    
H199     H      0.336950000000     0.748630000000     0.944250000000     0.0346729  
H200     H      0.337150000000     0.801490000000     0.944550000000     0.047075   
H201     H      0.134590000000     0.698120000000     0.970410000000     0.0472454  
H202     H      0.081700000000     0.698160000000     0.970660000000     0.0350837  
H203     H      0.081920000000     0.610720000000     0.003790000000     0.0366148  
H204     H      0.134790000000     0.610910000000     0.003770000000     0.0486803  
H205     H      0.174620000000     0.639070000000     0.031200000000     0.0471976  
H206     H      0.227480000000     0.639310000000     0.031510000000     0.034722   
H207     H      0.227760000000     0.670210000000     0.943260000000     0.0350347  
H208     H      0.174860000000     0.670200000000     0.943180000000     0.0471718  
H209     H      0.467510000000     0.669700000000     0.943610000000     0.0462877  
H210     H      0.414900000000     0.669180000000     0.943630000000     0.0347394  
H211     H      0.415070000000     0.640500000000     0.032570000000     0.0350087  
H212     H      0.467730000000     0.639750000000     0.032250000000     0.0464728  
H213     H      0.508820000000     0.669710000000     0.032050000000     0.0463182  
H214     H      0.561430000000     0.669050000000     0.032040000000     0.0347278  
H215     H      0.561200000000     0.640280000000     0.943130000000     0.0349859  
H216     H      0.508540000000     0.639660000000     0.943450000000     0.0464416  
H217     H      0.670440000000     0.800870000000     0.943030000000     0.0471281  
H218     H      0.670470000000     0.747980000000     0.943170000000     0.0349579  
H219     H      0.639390000000     0.748330000000     0.031360000000     0.0346475  
H220     H      0.639130000000     0.801190000000     0.031000000000     0.0471297  
H221     H      0.610990000000     0.840980000000     0.003430000000     0.0486486  
H222     H      0.610790000000     0.893840000000     0.003440000000     0.0363436  
H223     H      0.698320000000     0.894080000000     0.970550000000     0.0348016  
H224     H      0.698290000000     0.841190000000     0.970310000000     0.0471745  
H225     H      0.801710000000     0.638530000000     0.944670000000     0.0470457  
H226     H      0.748850000000     0.638730000000     0.944330000000     0.0346622  
H227     H      0.748500000000     0.669980000000     0.032460000000     0.034993   
H228     H      0.801400000000     0.670010000000     0.032570000000     0.0472327  
H229     H      0.841610000000     0.697920000000     0.005170000000     0.0485618  
H230     H      0.894500000000     0.698060000000     0.004940000000     0.0362241  
H231     H      0.894470000000     0.610440000000     0.972300000000     0.0348884  
H232     H      0.841590000000     0.610530000000     0.972300000000     0.0472387  
H233     H      0.336010000000     0.467550000000     0.032340000000     0.0464761  
H234     H      0.335250000000     0.414890000000     0.032670000000     0.0349738  
H235     H      0.306560000000     0.414720000000     0.943730000000     0.0347496  
H236     H      0.306030000000     0.467330000000     0.943720000000     0.0463342  
H237     H      0.336090000000     0.508340000000     0.943530000000     0.0463783  
H238     H      0.335480000000     0.561010000000     0.943200000000     0.0349993  
H239     H      0.306740000000     0.561260000000     0.032120000000     0.0347653  
H240     H      0.306070000000     0.508650000000     0.032140000000     0.0463452  
H241     H      0.174290000000     0.336920000000     0.944520000000     0.0471034  
H242     H      0.227150000000     0.336710000000     0.944260000000     0.0346919  
H243     H      0.227370000000     0.305790000000     0.032500000000     0.0350571  
H244     H      0.174480000000     0.305760000000     0.032540000000     0.047319   
H245     H      0.134290000000     0.277780000000     0.005260000000     0.0486702  
H246     H      0.081410000000     0.277650000000     0.004970000000     0.0365634  
H247     H      0.081490000000     0.365090000000     0.971840000000     0.0351594  
H248     H      0.134360000000     0.364990000000     0.971910000000     0.0473617  
H249     H      0.277610000000     0.134420000000     0.970510000000     0.0473055  
H250     H      0.277580000000     0.081530000000     0.970720000000     0.0351321  
H251     H      0.365110000000     0.081730000000     0.003600000000     0.0365903  
H252     H      0.364920000000     0.134600000000     0.003620000000     0.0487067  
H253     H      0.336780000000     0.174420000000     0.031180000000     0.0471952  
H254     H      0.336530000000     0.227280000000     0.031520000000     0.0347101  
H255     H      0.305490000000     0.227600000000     0.943320000000     0.0350359  
H256     H      0.305510000000     0.174700000000     0.943200000000     0.0472022  
H257     H      0.669890000000     0.508230000000     0.943720000000     0.0463083  
H258     H      0.669380000000     0.560840000000     0.943700000000     0.0347469  
H259     H      0.640660000000     0.560740000000     0.032630000000     0.0349741  
H260     H      0.639910000000     0.508080000000     0.032340000000     0.0464519  
H261     H      0.669840000000     0.466980000000     0.032180000000     0.0463184  
H262     H      0.669180000000     0.414370000000     0.032200000000     0.0347326  
H263     H      0.640450000000     0.414550000000     0.943280000000     0.0349897  
H264     H      0.639830000000     0.467220000000     0.943560000000     0.0463855  
H265     H      0.508430000000     0.305820000000     0.943860000000     0.0463262  
H266     H      0.561030000000     0.306340000000     0.943870000000     0.0347399  
H267     H      0.560880000000     0.335100000000     0.032780000000     0.0350081  
H268     H      0.508210000000     0.335860000000     0.032460000000     0.046478   
H269     H      0.467090000000     0.305930000000     0.032280000000     0.0463402  
H270     H      0.414480000000     0.306600000000     0.032240000000     0.0347651  
H271     H      0.414770000000     0.335290000000     0.943310000000     0.0350139  
H272     H      0.467430000000     0.335900000000     0.943650000000     0.0463921  
H273     H      0.841330000000     0.277420000000     0.970600000000     0.0472104  
H274     H      0.894210000000     0.277390000000     0.970770000000     0.0348734  
H275     H      0.894030000000     0.365020000000     0.003400000000     0.0363515  
H276     H      0.841160000000     0.364820000000     0.003460000000     0.0485867  
H277     H      0.801370000000     0.336740000000     0.031140000000     0.0471589  
H278     H      0.748510000000     0.336480000000     0.031520000000     0.0346458  
H279     H      0.748130000000     0.305230000000     0.943390000000     0.0349865  
H280     H      0.801020000000     0.305250000000     0.943240000000     0.0471461  
H281     H      0.698020000000     0.134130000000     0.005500000000     0.0486415  
H282     H      0.698140000000     0.081250000000     0.005240000000     0.0364873  
H283     H      0.610590000000     0.081330000000     0.972410000000     0.0351408  
H284     H      0.610700000000     0.134200000000     0.972450000000     0.0473913  
H285     H      0.638740000000     0.174060000000     0.944880000000     0.0471207  
H286     H      0.638960000000     0.226920000000     0.944530000000     0.0346789  
H287     H      0.670090000000     0.227280000000     0.032700000000     0.0350184  
H288     H      0.670100000000     0.174380000000     0.032830000000     0.0473031  
O1       O      0.610660000000     0.320510000000     0.964090000000    -0.386802   
O2       O      0.698340000000     0.320400000000     0.963600000000    -0.385547   
O3       O      0.654270000000     0.276730000000     0.964140000000    -0.386053   
O4       O      0.654410000000     0.364500000000     0.963650000000    -0.384961   
O5       O      0.654940000000     0.364760000000     0.011990000000    -0.385881   
O6       O      0.654980000000     0.277080000000     0.012480000000    -0.384606   
O7       O      0.698680000000     0.321110000000     0.011940000000    -0.385265   
O8       O      0.610920000000     0.321050000000     0.012430000000    -0.384105   
O9       O      0.364890000000     0.320820000000     0.011960000000    -0.385875   
O10      O      0.277210000000     0.320800000000     0.012320000000    -0.384628   
O11      O      0.321230000000     0.277090000000     0.011870000000    -0.385266   
O12      O      0.321190000000     0.364850000000     0.012310000000    -0.384148   
O13      O      0.320720000000     0.365090000000     0.963970000000    -0.386677   
O14      O      0.320600000000     0.277410000000     0.963520000000    -0.385452   
O15      O      0.276940000000     0.321480000000     0.963980000000    -0.386293   
O16      O      0.364700000000     0.321340000000     0.963620000000    -0.384976   
O17      O      0.698700000000     0.654810000000     0.012280000000    -0.38464    
O18      O      0.611030000000     0.654790000000     0.011820000000    -0.385877   
O19      O      0.654720000000     0.610760000000     0.012240000000    -0.38418    
O20      O      0.654680000000     0.698520000000     0.011740000000    -0.385461   
O21      O      0.655370000000     0.698170000000     0.963400000000    -0.385421   
O22      O      0.655250000000     0.610490000000     0.963900000000    -0.386808   
O23      O      0.611270000000     0.654250000000     0.963480000000    -0.385119   
O24      O      0.699030000000     0.654100000000     0.963930000000    -0.385994   
O25      O      0.277580000000     0.655180000000     0.963470000000    -0.385388   
O26      O      0.365260000000     0.655050000000     0.963890000000    -0.386818   
O27      O      0.321500000000     0.611070000000     0.963530000000    -0.38502    
O28      O      0.321660000000     0.698840000000     0.963930000000    -0.386137   
O29      O      0.320990000000     0.698540000000     0.012280000000    -0.384458   
O30      O      0.321000000000     0.610860000000     0.011870000000    -0.385904   
O31      O      0.365040000000     0.654550000000     0.012230000000    -0.384115   
O32      O      0.277280000000     0.654520000000     0.011820000000    -0.385203   
O33      O      0.610450000000     0.964660000000     0.655110000000    -0.386768   
O34      O      0.698120000000     0.963750000000     0.655080000000    -0.385567   
O35      O      0.654130000000     0.964520000000     0.698800000000    -0.386354   
O36      O      0.654120000000     0.963950000000     0.611070000000    -0.385151   
O37      O      0.654880000000     0.012290000000     0.610740000000    -0.385632   
O38      O      0.655040000000     0.012860000000     0.698440000000    -0.384291   
O39      O      0.698680000000     0.012090000000     0.654340000000    -0.385206   
O40      O      0.610920000000     0.013000000000     0.654520000000    -0.384048   
O41      O      0.364530000000     0.012340000000     0.654510000000    -0.385218   
O42      O      0.276850000000     0.011750000000     0.655380000000    -0.385088   
O43      O      0.321250000000     0.011800000000     0.698660000000    -0.385421   
O44      O      0.320170000000     0.012200000000     0.610900000000    -0.38409    
O45      O      0.321390000000     0.963870000000     0.610680000000    -0.386572   
O46      O      0.320570000000     0.963460000000     0.698360000000    -0.385554   
O47      O      0.277110000000     0.963420000000     0.654060000000    -0.385686   
O48      O      0.364860000000     0.964000000000     0.654670000000    -0.385605   
O49      O      0.277080000000     0.964080000000     0.320160000000    -0.385995   
O50      O      0.364770000000     0.963430000000     0.321100000000    -0.386012   
O51      O      0.320360000000     0.963570000000     0.364660000000    -0.384922   
O52      O      0.321510000000     0.964030000000     0.276910000000    -0.386096   
O53      O      0.320870000000     0.012380000000     0.277240000000    -0.384412   
O54      O      0.321620000000     0.011900000000     0.364920000000    -0.385887   
O55      O      0.365120000000     0.011770000000     0.320970000000    -0.384868   
O56      O      0.277370000000     0.012400000000     0.321510000000    -0.384886   
O57      O      0.698370000000     0.011870000000     0.320710000000    -0.384844   
O58      O      0.610700000000     0.010980000000     0.320650000000    -0.385894   
O59      O      0.654360000000     0.011720000000     0.364710000000    -0.384409   
O60      O      0.654390000000     0.011060000000     0.276980000000    -0.385738   
O61      O      0.655290000000     0.962730000000     0.277390000000    -0.385342   
O62      O      0.655110000000     0.963390000000     0.365090000000    -0.38659    
O63      O      0.611160000000     0.962640000000     0.321290000000    -0.384884   
O64      O      0.698930000000     0.963540000000     0.321500000000    -0.386175   
O65      O      0.963220000000     0.654010000000     0.698500000000    -0.385563   
O66      O      0.963600000000     0.654130000000     0.610820000000    -0.386721   
O67      O      0.963270000000     0.610020000000     0.654460000000    -0.385123   
O68      O      0.963630000000     0.697780000000     0.654540000000    -0.386239   
O69      O      0.011970000000     0.697510000000     0.655190000000    -0.384651   
O70      O      0.011610000000     0.609830000000     0.654940000000    -0.385931   
O71      O      0.011940000000     0.653660000000     0.611020000000    -0.384163   
O72      O      0.011560000000     0.653380000000     0.698780000000    -0.385465   
O73      O      0.963320000000     0.276350000000     0.654850000000    -0.385286   
O74      O      0.963720000000     0.364040000000     0.654900000000    -0.386611   
O75      O      0.963330000000     0.320390000000     0.610840000000    -0.385003   
O76      O      0.963810000000     0.320350000000     0.698590000000    -0.38623    
O77      O      0.012150000000     0.319690000000     0.698260000000    -0.384563   
O78      O      0.011670000000     0.319890000000     0.610570000000    -0.38575    
O79      O      0.012060000000     0.363820000000     0.654360000000    -0.384161   
O80      O      0.011670000000     0.276060000000     0.654150000000    -0.385217   
O81      O      0.011760000000     0.655850000000     0.365090000000    -0.38592    
O82      O      0.012340000000     0.656000000000     0.277400000000    -0.384518   
O83      O      0.011850000000     0.699650000000     0.321480000000    -0.385311   
O84      O      0.012160000000     0.611890000000     0.321320000000    -0.384137   
O85      O      0.963820000000     0.611720000000     0.320730000000    -0.386654   
O86      O      0.963510000000     0.699410000000     0.320730000000    -0.385385   
O87      O      0.964000000000     0.655400000000     0.277010000000    -0.38624    
O88      O      0.963420000000     0.655400000000     0.364770000000    -0.385042   
O89      O      0.963570000000     0.321620000000     0.364820000000    -0.386735   
O90      O      0.963140000000     0.321710000000     0.277140000000    -0.385421   
O91      O      0.963590000000     0.277960000000     0.321110000000    -0.386117   
O92      O      0.963220000000     0.365710000000     0.321180000000    -0.384967   
O93      O      0.011560000000     0.365920000000     0.320670000000    -0.385838   
O94      O      0.011940000000     0.278240000000     0.320430000000    -0.384478   
O95      O      0.011490000000     0.322360000000     0.276840000000    -0.38529    
O96      O      0.011910000000     0.322090000000     0.364600000000    -0.384103   
O97      O      0.943910000000     0.345400000000     0.988130000000    -0.386117   
O98      O      0.031620000000     0.345460000000     0.987080000000    -0.385255   
O99      O      0.987250000000     0.345240000000     0.943750000000    -0.385883   
O100     O      0.988280000000     0.345630000000     0.031460000000    -0.38527    
O101     O      0.986580000000     0.297310000000     0.031670000000    -0.384886   
O102     O      0.989030000000     0.296920000000     0.943970000000    -0.385871   
O103     O      0.031650000000     0.297160000000     0.989040000000    -0.385194   
O104     O      0.943960000000     0.297070000000     0.986590000000    -0.385742   
O105     O      0.944270000000     0.678480000000     0.989070000000    -0.385993   
O106     O      0.031970000000     0.678560000000     0.986580000000    -0.38508    
O107     O      0.986870000000     0.678330000000     0.943970000000    -0.385924   
O108     O      0.989370000000     0.678710000000     0.031670000000    -0.385135   
O109     O      0.987670000000     0.630390000000     0.031880000000    -0.385108   
O110     O      0.988670000000     0.630020000000     0.944170000000    -0.386245   
O111     O      0.032030000000     0.630250000000     0.988530000000    -0.385216   
O112     O      0.944320000000     0.630160000000     0.987530000000    -0.386157   
O113     O      0.031730000000     0.987820000000     0.296790000000    -0.38495    
O114     O      0.944020000000     0.989820000000     0.296980000000    -0.386053   
O115     O      0.988890000000     0.032670000000     0.296850000000    -0.385229   
O116     O      0.986860000000     0.944960000000     0.296930000000    -0.385862   
O117     O      0.988710000000     0.945000000000     0.345240000000    -0.386079   
O118     O      0.987250000000     0.032710000000     0.345160000000    -0.385346   
O119     O      0.944130000000     0.988120000000     0.345290000000    -0.386112   
O120     O      0.031830000000     0.989600000000     0.345110000000    -0.385209   
O121     O      0.943860000000     0.987570000000     0.630330000000    -0.386045   
O122     O      0.031570000000     0.986180000000     0.630450000000    -0.385054   
O123     O      0.987030000000     0.943030000000     0.630440000000    -0.386006   
O124     O      0.988390000000     0.030740000000     0.630340000000    -0.385191   
O125     O      0.986580000000     0.030790000000     0.678660000000    -0.384934   
O126     O      0.988710000000     0.943080000000     0.678760000000    -0.385957   
O127     O      0.031500000000     0.987970000000     0.678770000000    -0.385092   
O128     O      0.943790000000     0.985880000000     0.678650000000    -0.385875   
O129     O      0.630280000000     0.031460000000     0.987550000000    -0.385263   
O130     O      0.630360000000     0.943750000000     0.988280000000    -0.386139   
O131     O      0.630340000000     0.987960000000     0.031770000000    -0.385339   
O132     O      0.630300000000     0.987250000000     0.944060000000    -0.386126   
O133     O      0.678610000000     0.989040000000     0.944050000000    -0.386036   
O134     O      0.678660000000     0.986270000000     0.031740000000    -0.384918   
O135     O      0.678680000000     0.943800000000     0.986520000000    -0.38582    
O136     O      0.678590000000     0.031500000000     0.989270000000    -0.385183   
O137     O      0.297220000000     0.031800000000     0.986590000000    -0.384857   
O138     O      0.297320000000     0.944100000000     0.989030000000    -0.38604    
O139     O      0.297300000000     0.989170000000     0.031660000000    -0.385089   
O140     O      0.297240000000     0.986730000000     0.943960000000    -0.385945   
O141     O      0.345550000000     0.988520000000     0.943920000000    -0.38619    
O142     O      0.345620000000     0.987470000000     0.031630000000    -0.385147   
O143     O      0.345630000000     0.944140000000     0.987250000000    -0.385968   
O144     O      0.345540000000     0.031850000000     0.988310000000    -0.385235   


