data_structure

_audit_creation_method RASPA-1.0
_audit_creation_date 2023-6-5
_audit_author_name 'Poobodin Mano'

_cell_length_a    50.4408
_cell_length_b    50.4419
_cell_length_c    30.2555
_cell_angle_alpha 89.9753
_cell_angle_beta  90.0249
_cell_angle_gamma 119.985
_cell_volume      66676.7

_symmetry_cell_setting          triclinic
_symmetry_space_group_name_Hall 'P 1'
_symmetry_space_group_name_H-M  'P 1'
_symmetry_Int_Tables_number     1

_symmetry_equiv_pos_as_xyz 'x,y,z'

loop_
_atom_site_label
_atom_site_type_symbol
_atom_site_fract_x
_atom_site_fract_y
_atom_site_fract_z
_atom_site_charge
C1       C      0.878090000000     0.681500000000     0.654870000000     0.356457   
C2       C      0.760960000000     0.627360000000     0.607760000000     0.35654    
C3       C      0.804670000000     0.652950000000     0.715960000000     0.356656   
C4       C      0.834310000000     0.656040000000     0.546690000000     0.356328   
C5       C      0.094040000000     0.789660000000     0.774600000000     0.356302   
C6       C      0.211210000000     0.853710000000     0.821130000000     0.356121   
C7       C      0.167190000000     0.835550000000     0.713270000000     0.356252   
C8       C      0.138120000000     0.807810000000     0.882300000000     0.35748    
C9       C      0.544740000000     0.020260000000     0.986650000000     0.356012   
C10      C      0.427690000000     0.964130000000     0.938940000000     0.356152   
C11      C      0.471150000000     0.990090000000     0.047290000000     0.356425   
C12      C      0.501350000000     0.994130000000     0.878270000000     0.357401   
C13      C      0.211450000000     0.353800000000     0.321300000000     0.356404   
C14      C      0.094670000000     0.296990000000     0.271930000000     0.356133   
C15      C      0.137280000000     0.321890000000     0.381060000000     0.356739   
C16      C      0.168960000000     0.328880000000     0.212080000000     0.356338   
C17      C      0.761180000000     0.128720000000     0.105000000000     0.356344   
C18      C      0.877960000000     0.188780000000     0.154250000000     0.356211   
C19      C      0.835200000000     0.171090000000     0.045130000000     0.356273   
C20      C      0.803650000000     0.146320000000     0.214180000000     0.356387   
C21      C      0.544860000000     0.521300000000     0.488310000000     0.356488   
C22      C      0.427930000000     0.461540000000     0.439730000000     0.35619    
C23      C      0.470970000000     0.478720000000     0.548630000000     0.356607   
C24      C      0.501960000000     0.504040000000     0.379540000000     0.356535   
C25      C      0.185210000000     0.298460000000     0.773030000000     0.35642    
C26      C      0.122640000000     0.353050000000     0.820040000000     0.356306   
C27      C      0.140710000000     0.327430000000     0.711900000000     0.356583   
C28      C      0.167100000000     0.324060000000     0.881200000000     0.356541   
C29      C      0.294040000000     0.190990000000     0.654340000000     0.356487   
C30      C      0.349610000000     0.129410000000     0.607040000000     0.356286   
C31      C      0.323600000000     0.146960000000     0.715320000000     0.356642   
C32      C      0.319960000000     0.173320000000     0.546080000000     0.35665    
C33      C      0.012210000000     0.459350000000     0.937150000000     0.356188   
C34      C      0.954770000000     0.518850000000     0.985550000000     0.356685   
C35      C      0.980680000000     0.501830000000     0.876710000000     0.35646    
C36      C      0.986420000000     0.476580000000     0.045840000000     0.356565   
C37      C      0.683890000000     0.796590000000     0.275580000000     0.355988   
C38      C      0.629900000000     0.859400000000     0.324330000000     0.355898   
C39      C      0.654470000000     0.841010000000     0.215500000000     0.356824   
C40      C      0.659380000000     0.815080000000     0.384470000000     0.356078   
C41      C      0.788280000000     0.684820000000     0.156090000000     0.356113   
C42      C      0.847030000000     0.626820000000     0.106590000000     0.356562   
C43      C      0.829990000000     0.652040000000     0.215850000000     0.356301   
C44      C      0.805460000000     0.659430000000     0.046860000000     0.356336   
C45      C      0.521660000000     0.968770000000     0.438300000000     0.35608    
C46      C      0.459110000000     0.023140000000     0.486420000000     0.355869   
C47      C      0.476940000000     0.997740000000     0.377910000000     0.356505   
C48      C      0.503890000000     0.994430000000     0.546810000000     0.357216   
C49      C      0.292330000000     0.100180000000     0.155260000000     0.35605    
C50      C      0.349780000000     0.217000000000     0.106110000000     0.356518   
C51      C      0.324520000000     0.174460000000     0.215220000000     0.356445   
C52      C      0.317640000000     0.142890000000     0.046190000000     0.356347   
C53      C      0.458200000000     0.433550000000     0.988150000000     0.356516   
C54      C      0.518260000000     0.550620000000     0.940370000000     0.356525   
C55      C      0.500760000000     0.507330000000     0.048800000000     0.356578   
C56      C      0.475480000000     0.476820000000     0.879560000000     0.35647    
C57      C      0.120660000000     0.766870000000     0.322390000000     0.355975   
C58      C      0.182210000000     0.883730000000     0.273730000000     0.356165   
C59      C      0.164150000000     0.840720000000     0.382570000000     0.356186   
C60      C      0.138560000000     0.809840000000     0.213610000000     0.356966   
C61      C      0.011950000000     0.549410000000     0.437040000000     0.356467   
C62      C      0.956170000000     0.432450000000     0.485280000000     0.356509   
C63      C      0.981430000000     0.475560000000     0.376620000000     0.356509   
C64      C      0.986540000000     0.506190000000     0.545770000000     0.356683   
C65      C      0.785740000000     0.099600000000     0.653580000000     0.35632    
C66      C      0.848170000000     0.216590000000     0.605690000000     0.356572   
C67      C      0.830300000000     0.173160000000     0.714190000000     0.356391   
C68      C      0.803790000000     0.142980000000     0.545030000000     0.356133   
C69      C      0.624640000000     0.767330000000     0.823280000000     0.356303   
C70      C      0.678200000000     0.884420000000     0.776200000000     0.355948   
C71      C      0.652300000000     0.840620000000     0.884170000000     0.357064   
C72      C      0.650590000000     0.811170000000     0.715220000000     0.356139   
C73      C      0.724840000000     0.026310000000     0.707220000000    -0.0656597  
C74      C      0.738190000000     0.007640000000     0.705100000000     0.0225007  
C75      C      0.766820000000     0.019160000000     0.684300000000    -0.0658273  
C76      C      0.782020000000     0.048800000000     0.667000000000     0.0232101  
C77      C      0.768850000000     0.067590000000     0.669690000000    -0.104825   
C78      C      0.739940000000     0.055890000000     0.689570000000     0.0233824  
C79      C      0.722540000000     0.976390000000     0.724800000000     0.0228128  
C80      C      0.739540000000     0.965080000000     0.746440000000    -0.0658995  
C81      C      0.725080000000     0.935440000000     0.763750000000     0.0232291  
C82      C      0.693200000000     0.916460000000     0.760250000000    -0.104806   
C83      C      0.676050000000     0.927960000000     0.739570000000     0.0233056  
C84      C      0.690570000000     0.957530000000     0.721900000000    -0.065558   
C85      C      0.894190000000     0.352010000000     0.515240000000    -0.0658366  
C86      C      0.911130000000     0.340220000000     0.535900000000     0.0226193  
C87      C      0.943140000000     0.358800000000     0.538450000000    -0.0657099  
C88      C      0.957790000000     0.388470000000     0.521190000000     0.0234126  
C89      C      0.940770000000     0.400410000000     0.501290000000    -0.104953   
C90      C      0.908820000000     0.381780000000     0.498330000000     0.0232148  
C91      C      0.895430000000     0.308780000000     0.554960000000     0.0226772  
C92      C      0.866960000000     0.297190000000     0.576240000000    -0.0659481  
C93      C      0.851860000000     0.267460000000     0.593230000000     0.0234281  
C94      C      0.864950000000     0.248640000000     0.589740000000    -0.105018   
C95      C      0.893660000000     0.260360000000     0.569250000000     0.0233934  
C96      C      0.908660000000     0.290030000000     0.551900000000    -0.065674   
C97      C      0.105420000000     0.692410000000     0.374670000000    -0.0659077  
C98      C      0.073390000000     0.674210000000     0.371360000000     0.0226753  
C99      C      0.056980000000     0.686930000000     0.351540000000    -0.0654268  
C100     C      0.072230000000     0.717030000000     0.335670000000     0.0234646  
C101     C      0.104240000000     0.734910000000     0.338580000000    -0.105074   
C102     C      0.120640000000     0.722230000000     0.358130000000     0.0237275  
C103     C      0.057380000000     0.642130000000     0.388330000000     0.022704   
C104     C      0.071410000000     0.624080000000     0.385590000000    -0.0658287  
C105     C      0.056840000000     0.594250000000     0.402100000000     0.0237088  
C106     C      0.027580000000     0.581420000000     0.421050000000    -0.105092   
C107     C      0.013270000000     0.599160000000     0.423440000000     0.0235225  
C108     C      0.028100000000     0.629270000000     0.407600000000    -0.0654052  
C109     C      0.535860000000     0.630920000000     0.911150000000    -0.0659016  
C110     C      0.564820000000     0.643220000000     0.891140000000     0.0226468  
C111     C      0.578680000000     0.625010000000     0.888710000000    -0.0657084  
C112     C      0.563820000000     0.595190000000     0.905460000000     0.0234571  
C113     C      0.534650000000     0.582760000000     0.924750000000    -0.104963   
C114     C      0.520900000000     0.601020000000     0.927570000000     0.0232399  
C115     C      0.580380000000     0.674800000000     0.872620000000     0.0226158  
C116     C      0.563410000000     0.686160000000     0.850970000000    -0.0659811  
C117     C      0.577830000000     0.716010000000     0.834460000000     0.0231756  
C118     C      0.609640000000     0.735200000000     0.838830000000    -0.105103   
C119     C      0.626730000000     0.723710000000     0.859710000000     0.0233114  
C120     C      0.612260000000     0.693920000000     0.876570000000    -0.0657227  
C121     C      0.242900000000     0.957210000000     0.220340000000    -0.0657081  
C122     C      0.229900000000     0.976150000000     0.223770000000     0.022785   
C123     C      0.201370000000     0.964580000000     0.244870000000    -0.0659146  
C124     C      0.186040000000     0.934720000000     0.261480000000     0.0230816  
C125     C      0.198980000000     0.915780000000     0.257770000000    -0.105044   
C126     C      0.227700000000     0.927460000000     0.237310000000     0.0233889  
C127     C      0.245980000000     0.007770000000     0.205320000000     0.0224293  
C128     C      0.278020000000     0.025980000000     0.208030000000    -0.0655664  
C129     C      0.293080000000     0.055730000000     0.191040000000     0.023328   
C130     C      0.276450000000     0.068130000000     0.171280000000    -0.104744   
C131     C      0.244450000000     0.049930000000     0.168310000000     0.0231274  
C132     C      0.229410000000     0.020070000000     0.184940000000    -0.0657573  
C133     C      0.409440000000     0.290960000000     0.053140000000    -0.0658685  
C134     C      0.395720000000     0.309300000000     0.055860000000     0.0227545  
C135     C      0.366740000000     0.296960000000     0.075940000000    -0.0655396  
C136     C      0.351810000000     0.267030000000     0.092380000000     0.0237868  
C137     C      0.365720000000     0.248920000000     0.089820000000    -0.105304   
C138     C      0.394760000000     0.261280000000     0.070250000000     0.0237774  
C139     C      0.411650000000     0.341130000000     0.037940000000     0.0227596  
C140     C      0.443740000000     0.359270000000     0.040210000000    -0.0659019  
C141     C      0.458780000000     0.388980000000     0.023220000000     0.0238385  
C142     C      0.442130000000     0.401580000000     0.004240000000    -0.10532    
C143     C      0.410090000000     0.383670000000     0.002090000000     0.0237975  
C144     C      0.395040000000     0.353700000000     0.018410000000    -0.0654785  
C145     C      0.679370000000     0.806860000000     0.601170000000    -0.0659862  
C146     C      0.654360000000     0.801410000000     0.574390000000     0.0224961  
C147     C      0.627350000000     0.796890000000     0.594680000000    -0.0657479  
C148     C      0.625780000000     0.798990000000     0.640530000000     0.0231648  
C149     C      0.651170000000     0.805590000000     0.667220000000    -0.104659   
C150     C      0.677770000000     0.808840000000     0.647100000000     0.0229954  
C151     C      0.656990000000     0.802610000000     0.525440000000     0.0225668  
C152     C      0.683310000000     0.825990000000     0.504850000000    -0.0658207  
C153     C      0.684530000000     0.829350000000     0.458930000000     0.0232494  
C154     C      0.659500000000     0.809360000000     0.432510000000    -0.104774   
C155     C      0.633720000000     0.785130000000     0.452970000000     0.0228943  
C156     C      0.632470000000     0.781850000000     0.498930000000    -0.0661494  
C157     C      0.625280000000     0.830220000000     0.002390000000    -0.0653638  
C158     C      0.652180000000     0.851000000000     0.025090000000     0.0229905  
C159     C      0.678490000000     0.870110000000     0.999970000000    -0.0657087  
C160     C      0.678410000000     0.867200000000     0.954010000000     0.0251009  
C161     C      0.651730000000     0.845960000000     0.931920000000    -0.106182   
C162     C      0.624970000000     0.828080000000     0.956330000000     0.0247859  
C163     C      0.653250000000     0.851290000000     0.074550000000     0.0228113  
C164     C      0.626690000000     0.842600000000     0.099920000000    -0.0654726  
C165     C      0.627110000000     0.839700000000     0.145860000000     0.0246581  
C166     C      0.654310000000     0.846470000000     0.167660000000    -0.105964   
C167     C      0.681170000000     0.856600000000     0.142940000000     0.0245733  
C168     C      0.680580000000     0.858550000000     0.096950000000    -0.0653988  
C169     C      0.771770000000     0.748140000000     0.186180000000    -0.0658082  
C170     C      0.742920000000     0.731750000000     0.206620000000     0.0226298  
C171     C      0.728830000000     0.699670000000     0.209160000000    -0.0656257  
C172     C      0.743280000000     0.684420000000     0.192000000000     0.0233209  
C173     C      0.772310000000     0.700880000000     0.172220000000    -0.104736   
C174     C      0.786340000000     0.732900000000     0.169390000000     0.0232064  
C175     C      0.727670000000     0.748050000000     0.225290000000     0.022528   
C176     C      0.744900000000     0.776510000000     0.246480000000    -0.0657546  
C177     C      0.730670000000     0.792110000000     0.263220000000     0.0229144  
C178     C      0.698830000000     0.779500000000     0.259570000000    -0.104868   
C179     C      0.681520000000     0.750840000000     0.239050000000     0.0232406  
C180     C      0.695770000000     0.735380000000     0.221950000000    -0.0655869  
C181     C      0.585630000000     0.952930000000     0.408890000000    -0.0653682  
C182     C      0.569250000000     0.923610000000     0.389720000000     0.0227059  
C183     C      0.537190000000     0.909600000000     0.386730000000    -0.065896   
C184     C      0.521900000000     0.924160000000     0.403100000000     0.0237639  
C185     C      0.538240000000     0.953390000000     0.422140000000    -0.105063   
C186     C      0.570300000000     0.967760000000     0.424600000000     0.0234143  
C187     C      0.585260000000     0.907440000000     0.373150000000     0.0226539  
C188     C      0.614390000000     0.923630000000     0.353360000000    -0.0653573  
C189     C      0.629040000000     0.908150000000     0.337580000000     0.0234215  
C190     C      0.614690000000     0.876120000000     0.340600000000    -0.105033   
C191     C      0.585660000000     0.859950000000     0.360290000000     0.0237099  
C192     C      0.571280000000     0.875400000000     0.376720000000    -0.0658718  
C193     C      0.956010000000     0.491050000000     0.756660000000    -0.0658193  
C194     C      0.982280000000     0.514320000000     0.735830000000     0.0226298  
C195     C      0.007090000000     0.534880000000     0.762050000000    -0.0662682  
C196     C      0.006110000000     0.531560000000     0.807990000000     0.0230253  
C197     C      0.980340000000     0.507480000000     0.828690000000    -0.104761   
C198     C      0.955060000000     0.487630000000     0.802560000000     0.0231376  
C199     C      0.984480000000     0.515680000000     0.686860000000     0.0226858  
C200     C      0.011140000000     0.519820000000     0.665820000000    -0.0660073  
C201     C      0.012210000000     0.517860000000     0.619870000000     0.0231964  
C202     C      0.986670000000     0.511800000000     0.593870000000    -0.104928   
C203     C      0.960490000000     0.508990000000     0.614790000000     0.0231946  
C204     C      0.959380000000     0.510810000000     0.660800000000    -0.0662468  
C205     C      0.959950000000     0.444540000000     0.160950000000    -0.0662273  
C206     C      0.984980000000     0.465070000000     0.186870000000     0.0226791  
C207     C      0.011390000000     0.487850000000     0.165700000000    -0.0659419  
C208     C      0.012270000000     0.490880000000     0.119750000000     0.0233244  
C209     C      0.986790000000     0.471110000000     0.093900000000    -0.104909   
C210     C      0.960870000000     0.447460000000     0.114940000000     0.0230694  
C211     C      0.982890000000     0.464290000000     0.235840000000     0.0227181  
C212     C      0.956520000000     0.460990000000     0.256730000000    -0.0659325  
C213     C      0.955660000000     0.463610000000     0.302600000000     0.0234327  
C214     C      0.981110000000     0.469480000000     0.328650000000    -0.104941   
C215     C      0.007000000000     0.471480000000     0.307920000000     0.0230512  
C216     C      0.007910000000     0.469000000000     0.261990000000    -0.06639    
C217     C      0.909770000000     0.609720000000     0.075500000000    -0.0654989  
C218     C      0.893040000000     0.580850000000     0.055150000000     0.0227207  
C219     C      0.860970000000     0.567170000000     0.052730000000    -0.0657906  
C220     C      0.846070000000     0.581830000000     0.070290000000     0.0237213  
C221     C      0.862860000000     0.610790000000     0.090040000000    -0.105244   
C222     C      0.894870000000     0.624620000000     0.092390000000     0.023834   
C223     C      0.908850000000     0.565020000000     0.036610000000     0.022778   
C224     C      0.937940000000     0.581750000000     0.016870000000    -0.065551   
C225     C      0.952840000000     0.566820000000     0.000090000000     0.0239098  
C226     C      0.938800000000     0.534780000000     0.001940000000    -0.10529    
C227     C      0.909620000000     0.518000000000     0.021060000000     0.0237875  
C228     C      0.894950000000     0.532920000000     0.038520000000    -0.0658691  
C229     C      0.295940000000     0.114260000000     0.829850000000    -0.0661673  
C230     C      0.321120000000     0.134010000000     0.856170000000     0.0226168  
C231     C      0.347890000000     0.156550000000     0.835440000000    -0.0658946  
C232     C      0.349060000000     0.160070000000     0.789570000000     0.0233248  
C233     C      0.323490000000     0.141060000000     0.763320000000    -0.105016   
C234     C      0.297140000000     0.117670000000     0.783910000000     0.0232423  
C235     C      0.318890000000     0.132680000000     0.905150000000     0.0226036  
C236     C      0.292770000000     0.129840000000     0.926220000000    -0.0658335  
C237     C      0.291900000000     0.132020000000     0.972180000000     0.0232817  
C238     C      0.317110000000     0.136980000000     0.998120000000    -0.104897   
C239     C      0.342690000000     0.138430000000     0.977170000000     0.0231058  
C240     C      0.343600000000     0.136390000000     0.931180000000    -0.0662512  
C241     C      0.347460000000     0.205070000000     0.431050000000    -0.066154   
C242     C      0.322060000000     0.185330000000     0.405060000000     0.0226084  
C243     C      0.295230000000     0.163220000000     0.426170000000    -0.0659435  
C244     C      0.294210000000     0.160070000000     0.472090000000     0.0233626  
C245     C      0.319980000000     0.179030000000     0.498020000000    -0.104961   
C246     C      0.346400000000     0.202030000000     0.477070000000     0.0231184  
C247     C      0.324070000000     0.186170000000     0.356050000000     0.022585   
C248     C      0.299290000000     0.182360000000     0.330090000000    -0.0662465  
C249     C      0.299920000000     0.179750000000     0.284160000000     0.023123   
C250     C      0.325290000000     0.180760000000     0.263190000000    -0.104975   
C251     C      0.350580000000     0.185830000000     0.289040000000     0.0232339  
C252     C      0.349990000000     0.188550000000     0.334940000000    -0.065857   
C253     C      0.411920000000     0.111410000000     0.577230000000    -0.0659521  
C254     C      0.395180000000     0.082770000000     0.556390000000     0.0226982  
C255     C      0.363150000000     0.069140000000     0.553810000000    -0.0656303  
C256     C      0.348280000000     0.083940000000     0.571140000000     0.0233549  
C257     C      0.365110000000     0.112840000000     0.591160000000    -0.10488    
C258     C      0.397090000000     0.126320000000     0.594230000000     0.0232404  
C259     C      0.411130000000     0.067320000000     0.537240000000     0.0224772  
C260     C      0.439570000000     0.084430000000     0.515960000000    -0.0658324  
C261     C      0.454940000000     0.070070000000     0.498950000000     0.0229122  
C262     C      0.442140000000     0.038200000000     0.502450000000    -0.104827   
C263     C      0.413460000000     0.020990000000     0.522980000000     0.0230103  
C264     C      0.398200000000     0.035380000000     0.540310000000    -0.0655669  
C265     C      0.061590000000     0.365660000000     0.872560000000    -0.0656593  
C266     C      0.074610000000     0.397600000000     0.869240000000     0.0226484  
C267     C      0.103210000000     0.414600000000     0.848350000000    -0.0658718  
C268     C      0.118620000000     0.400110000000     0.831920000000     0.0232446  
C269     C      0.105680000000     0.368230000000     0.835600000000    -0.104878   
C270     C      0.076870000000     0.351140000000     0.855770000000     0.0234109  
C271     C      0.058520000000     0.413140000000     0.887610000000     0.0226282  
C272     C      0.026500000000     0.399400000000     0.884610000000    -0.06568    
C273     C      0.011450000000     0.414140000000     0.901450000000     0.0232709  
C274     C      0.028070000000     0.443110000000     0.921340000000    -0.104777   
C275     C      0.060040000000     0.456790000000     0.924630000000     0.0231584  
C276     C      0.075070000000     0.441930000000     0.908150000000    -0.0657923  
C277     C      0.280770000000     0.251550000000     0.707160000000    -0.0656786  
C278     C      0.248770000000     0.238120000000     0.704280000000     0.0226644  
C279     C      0.231960000000     0.209470000000     0.683450000000    -0.0659094  
C280     C      0.246680000000     0.194380000000     0.666740000000     0.0233305  
C281     C      0.278620000000     0.207670000000     0.670070000000    -0.104985   
C282     C      0.295530000000     0.236570000000     0.690100000000     0.0233892  
C283     C      0.232930000000     0.253780000000     0.723130000000     0.0226677  
C284     C      0.204350000000     0.236820000000     0.744080000000    -0.0658813  
C285     C      0.189070000000     0.251360000000     0.760790000000     0.0233056  
C286     C      0.202120000000     0.283260000000     0.757350000000    -0.104925   
C287     C      0.230960000000     0.300330000000     0.737210000000     0.0233471  
C288     C      0.246120000000     0.285750000000     0.720150000000    -0.0656842  
C289     C      0.442550000000     0.470790000000     0.764960000000    -0.0663524  
C290     C      0.462930000000     0.466310000000     0.738670000000     0.0226321  
C291     C      0.486050000000     0.463000000000     0.759430000000    -0.0659571  
C292     C      0.489490000000     0.465370000000     0.805330000000     0.0233148  
C293     C      0.469810000000     0.470990000000     0.831530000000    -0.105093   
C294     C      0.445890000000     0.473010000000     0.810890000000     0.0232944  
C295     C      0.461540000000     0.467210000000     0.689720000000     0.0225598  
C296     C      0.466040000000     0.446760000000     0.663630000000    -0.0662327  
C297     C      0.467830000000     0.449690000000     0.617630000000     0.0232098  
C298     C      0.465340000000     0.473270000000     0.596730000000    -0.105062   
C299     C      0.459640000000     0.492970000000     0.622750000000     0.0232861  
C300     C      0.457710000000     0.489930000000     0.668710000000    -0.0658727  
C301     C      0.532850000000     0.512880000000     0.163890000000    -0.0662118  
C302     C      0.512500000000     0.517670000000     0.189770000000     0.0226511  
C303     C      0.489800000000     0.521450000000     0.168570000000    -0.0659875  
C304     C      0.486700000000     0.519170000000     0.122640000000     0.0235994  
C305     C      0.506290000000     0.513190000000     0.096840000000    -0.105066   
C306     C      0.529860000000     0.510760000000     0.117900000000     0.0230939  
C307     C      0.513330000000     0.516490000000     0.238750000000     0.0226514  
C308     C      0.516430000000     0.493350000000     0.259800000000    -0.0658882  
C309     C      0.513800000000     0.489960000000     0.305680000000     0.0234699  
C310     C      0.508110000000     0.509720000000     0.331580000000    -0.105108   
C311     C      0.506350000000     0.533710000000     0.310690000000     0.0232149  
C312     C      0.508830000000     0.536990000000     0.264750000000    -0.0663082  
C313     C      0.820800000000     0.187610000000     0.834470000000    -0.0659274  
C314     C      0.843400000000     0.183380000000     0.855050000000     0.0225974  
C315     C      0.863150000000     0.178040000000     0.828600000000    -0.0661335  
C316     C      0.859680000000     0.175910000000     0.782660000000     0.023102   
C317     C      0.836240000000     0.178880000000     0.762210000000    -0.104821   
C318     C      0.817220000000     0.185330000000     0.788590000000     0.0232045  
C319     C      0.844870000000     0.182470000000     0.904020000000     0.0225374  
C320     C      0.841200000000     0.203450000000     0.930130000000    -0.0662457  
C321     C      0.839360000000     0.200530000000     0.976130000000     0.0230322  
C322     C      0.840950000000     0.176440000000     0.997020000000    -0.104875   
C323     C      0.845860000000     0.156210000000     0.970980000000     0.0232512  
C324     C      0.847840000000     0.159220000000     0.925010000000    -0.0658014  
C325     C      0.813960000000     0.128000000000     0.425360000000    -0.0658465  
C326     C      0.792010000000     0.132870000000     0.404000000000     0.0225487  
C327     C      0.772310000000     0.138710000000     0.429780000000    -0.0659631  
C328     C      0.775260000000     0.140770000000     0.475810000000     0.0229752  
C329     C      0.798120000000     0.137210000000     0.496990000000    -0.104768   
C330     C      0.817010000000     0.130180000000     0.471280000000     0.0232985  
C331     C      0.791350000000     0.134050000000     0.354970000000     0.0225648  
C332     C      0.789090000000     0.157620000000     0.333690000000    -0.0657955  
C333     C      0.792000000000     0.160960000000     0.287810000000     0.0231589  
C334     C      0.797200000000     0.140760000000     0.262120000000    -0.104863   
C335     C      0.798110000000     0.116380000000     0.283230000000     0.0231017  
C336     C      0.795280000000     0.113100000000     0.329140000000    -0.0661802  
C337     C      0.108240000000     0.299740000000     0.597270000000    -0.0661659  
C338     C      0.127900000000     0.325020000000     0.571030000000     0.0225734  
C339     C      0.150280000000     0.351840000000     0.591850000000    -0.0659071  
C340     C      0.153750000000     0.352960000000     0.637730000000     0.0233251  
C341     C      0.134830000000     0.327310000000     0.663890000000    -0.105011   
C342     C      0.111590000000     0.300900000000     0.643220000000     0.0231846  
C343     C      0.126660000000     0.322850000000     0.522050000000     0.0226319  
C344     C      0.124010000000     0.296820000000     0.500930000000    -0.0659501  
C345     C      0.126320000000     0.296050000000     0.454990000000     0.0234079  
C346     C      0.131250000000     0.321270000000     0.429100000000    -0.105114   
C347     C      0.132510000000     0.346750000000     0.450080000000     0.0231909  
C348     C      0.130330000000     0.347560000000     0.496060000000    -0.0663166  
C349     C      0.176570000000     0.303580000000     0.097130000000    -0.0661856  
C350     C      0.180340000000     0.328350000000     0.071180000000     0.0225098  
C351     C      0.182820000000     0.354300000000     0.092340000000    -0.0657657  
C352     C      0.180240000000     0.354930000000     0.138250000000     0.0231718  
C353     C      0.175190000000     0.329640000000     0.164080000000    -0.104858   
C354     C      0.174090000000     0.304240000000     0.143070000000     0.0230809  
C355     C      0.179360000000     0.326300000000     0.022180000000     0.0226598  
C356     C      0.199040000000     0.351680000000     0.996110000000    -0.0662104  
C357     C      0.195900000000     0.350580000000     0.950110000000     0.0231417  
C358     C      0.172850000000     0.324140000000     0.929250000000    -0.104986   
C359     C      0.153940000000     0.298400000000     0.955260000000     0.0233428  
C360     C      0.157190000000     0.299460000000     0.001160000000    -0.0659401  
C361     C      0.020700000000     0.283290000000     0.219100000000    -0.0656287  
C362     C      0.002170000000     0.251300000000     0.222180000000     0.0224568  
C363     C      0.014220000000     0.234560000000     0.242730000000    -0.0656189  
C364     C      0.044120000000     0.249370000000     0.259210000000     0.0230331  
C365     C      0.062620000000     0.281330000000     0.255930000000    -0.104783   
C366     C      0.050490000000     0.298130000000     0.235950000000     0.0233811  
C367     C      0.970470000000     0.235480000000     0.203970000000     0.0227688  
C368     C      0.951940000000     0.248950000000     0.207140000000    -0.0656928  
C369     C      0.922160000000     0.234050000000     0.190290000000     0.0233966  
C370     C      0.910030000000     0.205160000000     0.170220000000    -0.104742   
C371     C      0.928530000000     0.191710000000     0.166840000000     0.0231864  
C372     C      0.958430000000     0.206750000000     0.183310000000    -0.0657852  
C373     C      0.348050000000     0.398530000000     0.409210000000    -0.0654061  
C374     C      0.335570000000     0.415220000000     0.389630000000     0.0226712  
C375     C      0.353800000000     0.447300000000     0.387360000000    -0.0657989  
C376     C      0.383490000000     0.462260000000     0.404430000000     0.0237209  
C377     C      0.395990000000     0.445540000000     0.423490000000    -0.10511    
C378     C      0.378000000000     0.413500000000     0.425600000000     0.0236348  
C379     C      0.303740000000     0.399380000000     0.371700000000     0.0227926  
C380     C      0.291280000000     0.370370000000     0.351650000000    -0.0655855  
C381     C      0.261350000000     0.355550000000     0.335180000000     0.0237694  
C382     C      0.243360000000     0.369590000000     0.337680000000    -0.105232   
C383     C      0.255830000000     0.398640000000     0.357230000000     0.0237926  
C384     C      0.285510000000     0.413220000000     0.374370000000    -0.0659166  
C385     C      0.492360000000     0.967140000000     0.760170000000    -0.065465   
C386     C      0.512670000000     0.994210000000     0.737440000000     0.0230173  
C387     C      0.530770000000     0.020900000000     0.762470000000    -0.0657425  
C388     C      0.527430000000     0.020870000000     0.808370000000     0.0247891  
C389     C      0.506790000000     0.993930000000     0.830480000000    -0.106176   
C390     C      0.489820000000     0.966930000000     0.806140000000     0.0248874  
C391     C      0.513510000000     0.994920000000     0.687980000000     0.0230514  
C392     C      0.505950000000     0.968350000000     0.663260000000    -0.0656119  
C393     C      0.503330000000     0.968240000000     0.617230000000     0.0249262  
C394     C      0.509340000000     0.994960000000     0.594710000000    -0.106131   
C395     C      0.518480000000     0.021910000000     0.618780000000     0.024696   
C396     C      0.520100000000     0.021810000000     0.664860000000    -0.0656765  
C397     C      0.486330000000     0.021690000000     0.257640000000    -0.065962   
C398     C      0.463200000000     0.995130000000     0.237230000000     0.0227374  
C399     C      0.443140000000     0.970290000000     0.263850000000    -0.0661917  
C400     C      0.446840000000     0.971550000000     0.309740000000     0.0230515  
C401     C      0.470810000000     0.997640000000     0.329980000000    -0.104796   
C402     C      0.490130000000     0.022920000000     0.303470000000     0.0232546  
C403     C      0.461620000000     0.992650000000     0.188290000000     0.0226922  
C404     C      0.466050000000     0.017500000000     0.161940000000    -0.0662867  
C405     C      0.467870000000     0.016220000000     0.115940000000     0.022872   
C406     C      0.465490000000     0.990120000000     0.095340000000    -0.104748   
C407     C      0.459820000000     0.964820000000     0.121620000000     0.0234018  
C408     C      0.457860000000     0.966060000000     0.167540000000    -0.0657818  
C409     C      0.681420000000     0.065410000000     0.074660000000    -0.0654072  
C410     C      0.668950000000     0.081910000000     0.054490000000     0.0227559  
C411     C      0.687170000000     0.113980000000     0.051670000000    -0.0659132  
C412     C      0.716830000000     0.129110000000     0.068850000000     0.0237826  
C413     C      0.729290000000     0.112570000000     0.088580000000    -0.105183   
C414     C      0.711340000000     0.080540000000     0.091170000000     0.023699   
C415     C      0.637100000000     0.065940000000     0.036690000000     0.0226537  
C416     C      0.624540000000     0.036750000000     0.017180000000    -0.0653641  
C417     C      0.594560000000     0.021850000000     0.000830000000     0.0233789  
C418     C      0.576670000000     0.036000000000     0.002930000000    -0.10506    
C419     C      0.589240000000     0.065210000000     0.022020000000     0.0236108  
C420     C      0.618930000000     0.079850000000     0.039030000000    -0.0658159  
C421     C      0.181940000000     0.826900000000     0.592860000000    -0.0657684  
C422     C      0.177350000000     0.849340000000     0.572510000000     0.022534   
C423     C      0.171650000000     0.868750000000     0.599210000000    -0.0660057  
C424     C      0.169520000000     0.865080000000     0.645130000000     0.023036   
C425     C      0.172850000000     0.841780000000     0.665300000000    -0.104727   
C426     C      0.179680000000     0.823130000000     0.638690000000     0.0232358  
C427     C      0.176300000000     0.850840000000     0.523560000000     0.0226082  
C428     C      0.197230000000     0.847240000000     0.497210000000    -0.0661956  
C429     C      0.194060000000     0.845220000000     0.451230000000     0.0230259  
C430     C      0.169780000000     0.846590000000     0.430610000000    -0.104831   
C431     C      0.149620000000     0.851480000000     0.456880000000     0.023293   
C432     C      0.152870000000     0.853620000000     0.502800000000    -0.0658425  
C433     C      0.149150000000     0.791540000000     0.000430000000    -0.0654619  
C434     C      0.128250000000     0.797410000000     0.023260000000     0.023005   
C435     C      0.108850000000     0.804320000000     0.998270000000    -0.0657886  
C436     C      0.111600000000     0.807120000000     0.952300000000     0.0252417  
C437     C      0.132960000000     0.801940000000     0.930080000000    -0.106375   
C438     C      0.151140000000     0.793340000000     0.954370000000     0.0248287  
C439     C      0.128110000000     0.798250000000     0.072710000000     0.0228664  
C440     C      0.137150000000     0.780610000000     0.098040000000    -0.0656095  
C441     C      0.140140000000     0.783990000000     0.143970000000     0.0247889  
C442     C      0.133130000000     0.804230000000     0.165790000000    -0.106219   
C443     C      0.122680000000     0.820720000000     0.141120000000     0.0247826  
C444     C      0.120630000000     0.818140000000     0.095140000000    -0.0655791  
C445     C      0.292390000000     0.873850000000     0.849300000000    -0.0659685  
C446     C      0.303710000000     0.902300000000     0.870530000000     0.0225838  
C447     C      0.284610000000     0.915120000000     0.873900000000    -0.065625   
C448     C      0.254820000000     0.899690000000     0.857000000000     0.0231866  
C449     C      0.243360000000     0.870970000000     0.836610000000    -0.104939   
C450     C      0.262550000000     0.858330000000     0.832710000000     0.0231191  
C451     C      0.335210000000     0.918340000000     0.889300000000     0.0226034  
C452     C      0.347270000000     0.901690000000     0.910050000000    -0.065911   
C453     C      0.377110000000     0.916580000000     0.926660000000     0.0230827  
C454     C      0.395560000000     0.948530000000     0.923280000000    -0.105006   
C455     C      0.383350000000     0.965280000000     0.903320000000     0.0232893  
C456     C      0.353570000000     0.950350000000     0.886400000000    -0.0656407  
C457     C      0.799530000000     0.680920000000     0.830210000000    -0.0662142  
C458     C      0.793930000000     0.655750000000     0.856710000000     0.0226302  
C459     C      0.789690000000     0.628910000000     0.836200000000    -0.0659461  
C460     C      0.792190000000     0.627660000000     0.790360000000     0.0233197  
C461     C      0.798870000000     0.653190000000     0.763940000000    -0.104989   
C462     C      0.801870000000     0.679620000000     0.784310000000     0.0232518  
C463     C      0.794600000000     0.658060000000     0.905680000000     0.0225797  
C464     C      0.817820000000     0.684180000000     0.926840000000    -0.0658255  
C465     C      0.820640000000     0.685110000000     0.972830000000     0.0233277  
C466     C      0.800240000000     0.659970000000     0.998730000000    -0.104878   
C467     C      0.776160000000     0.634400000000     0.977670000000     0.0230571  
C468     C      0.773430000000     0.633420000000     0.931640000000    -0.0662707  
C469     C      0.837660000000     0.628280000000     0.431470000000    -0.0661509  
C470     C      0.843770000000     0.653880000000     0.405600000000     0.0226149  
C471     C      0.849100000000     0.680880000000     0.426860000000    -0.0659455  
C472     C      0.847130000000     0.681880000000     0.472800000000     0.0234146  
C473     C      0.839860000000     0.655940000000     0.498610000000    -0.104906   
C474     C      0.835830000000     0.629330000000     0.477510000000     0.0231068  
C475     C      0.842430000000     0.651960000000     0.356590000000     0.0225624  
C476     C      0.863600000000     0.676610000000     0.330640000000    -0.06618    
C477     C      0.860240000000     0.676150000000     0.284740000000     0.0231063  
C478     C      0.835560000000     0.651070000000     0.263780000000    -0.10485    
C479     C      0.815130000000     0.625880000000     0.289590000000     0.023192   
C480     C      0.818550000000     0.626310000000     0.335460000000    -0.065805   
C481     C      0.680090000000     0.565970000000     0.578790000000    -0.0658616  
C482     C      0.668630000000     0.583020000000     0.557610000000     0.0226158  
C483     C      0.687580000000     0.614960000000     0.554420000000    -0.065637   
C484     C      0.717290000000     0.629430000000     0.571570000000     0.0234135  
C485     C      0.728880000000     0.612280000000     0.591980000000    -0.104997   
C486     C      0.709880000000     0.580400000000     0.595570000000     0.023318   
C487     C      0.637130000000     0.567520000000     0.538800000000     0.0226545  
C488     C      0.625020000000     0.538770000000     0.518180000000    -0.0658666  
C489     C      0.595230000000     0.523920000000     0.501350000000     0.0232876  
C490     C      0.576890000000     0.537570000000     0.504350000000    -0.105068   
C491     C      0.589130000000     0.566530000000     0.524270000000     0.0235     
C492     C      0.618820000000     0.581260000000     0.541450000000    -0.0657448  
C493     C      0.958770000000     0.742980000000     0.684340000000    -0.0659569  
C494     C      0.970390000000     0.725940000000     0.705100000000     0.0227843  
C495     C      0.951710000000     0.693940000000     0.707580000000    -0.0657226  
C496     C      0.922000000000     0.679420000000     0.690360000000     0.0233741  
C497     C      0.910200000000     0.696590000000     0.670550000000    -0.104955   
C498     C      0.929020000000     0.728510000000     0.667460000000     0.0233786  
C499     C      0.001740000000     0.741610000000     0.724430000000     0.022578   
C500     C      0.020650000000     0.728550000000     0.721360000000    -0.0656587  
C501     C      0.050350000000     0.743760000000     0.738610000000     0.0234349  
C502     C      0.061920000000     0.772470000000     0.759050000000    -0.105155   
C503     C      0.042860000000     0.785280000000     0.762770000000     0.0233958  
C504     C      0.013120000000     0.769990000000     0.745870000000    -0.0661229  
Cu1      Cu     0.821520000000     0.679820000000     0.627350000000     0.840971   
Cu2      Cu     0.817510000000     0.629080000000     0.635330000000     0.83817    
Cu3      Cu     0.150190000000     0.844770000000     0.802280000000     0.839829   
Cu4      Cu     0.155070000000     0.798570000000     0.793440000000     0.839639   
Cu5      Cu     0.487710000000     0.017300000000     0.958850000000     0.839744   
Cu6      Cu     0.484780000000     0.967010000000     0.966550000000     0.839915   
Cu7      Cu     0.154140000000     0.350360000000     0.293460000000     0.840694   
Cu8      Cu     0.152030000000     0.300380000000     0.299670000000     0.838213   
Cu9      Cu     0.818440000000     0.182630000000     0.132800000000     0.84097    
Cu10     Cu     0.820640000000     0.134820000000     0.126580000000     0.837919   
Cu11     Cu     0.485320000000     0.515270000000     0.467510000000     0.840661   
Cu12     Cu     0.487440000000     0.467450000000     0.460600000000     0.838644   
Cu13     Cu     0.130500000000     0.300440000000     0.800480000000     0.840048   
Cu14     Cu     0.177350000000     0.351070000000     0.792610000000     0.839159   
Cu15     Cu     0.296610000000     0.136610000000     0.626740000000     0.839852   
Cu16     Cu     0.347000000000     0.183750000000     0.634670000000     0.839212   
Cu17     Cu     0.958600000000     0.465220000000     0.957800000000     0.840566   
Cu18     Cu     0.008460000000     0.513120000000     0.964740000000     0.839023   
Cu19     Cu     0.631550000000     0.804640000000     0.296470000000     0.841025   
Cu20     Cu     0.682320000000     0.851470000000     0.303340000000     0.837371   
Cu21     Cu     0.793580000000     0.630980000000     0.134490000000     0.840015   
Cu22     Cu     0.841770000000     0.680640000000     0.128290000000     0.838981   
Cu23     Cu     0.467070000000     0.970660000000     0.466360000000     0.841322   
Cu24     Cu     0.513850000000     0.021380000000     0.458440000000     0.837784   
Cu25     Cu     0.345950000000     0.159520000000     0.133910000000     0.840559   
Cu26     Cu     0.296130000000     0.157720000000     0.127530000000     0.838312   
Cu27     Cu     0.512030000000     0.490940000000     0.960670000000     0.840216   
Cu28     Cu     0.464280000000     0.493180000000     0.967700000000     0.83943    
Cu29     Cu     0.174980000000     0.823660000000     0.294610000000     0.840658   
Cu30     Cu     0.127750000000     0.826900000000     0.301420000000     0.837968   
Cu31     Cu     0.009150000000     0.492360000000     0.464680000000     0.841104   
Cu32     Cu     0.958880000000     0.489520000000     0.457670000000     0.838259   
Cu33     Cu     0.840430000000     0.156210000000     0.625740000000     0.84031    
Cu34     Cu     0.793550000000     0.159970000000     0.633500000000     0.838829   
Cu35     Cu     0.676910000000     0.828190000000     0.804200000000     0.839593   
Cu36     Cu     0.625940000000     0.823570000000     0.795350000000     0.839705   
H1       H      0.777510000000     0.005230000000     0.681200000000     0.0462977  
H2       H      0.804160000000     0.057010000000     0.651630000000     0.0350169  
H3       H      0.729220000000     0.069810000000     0.692460000000     0.0357643  
H4       H      0.703020000000     0.018370000000     0.723420000000     0.0469229  
H5       H      0.764110000000     0.979150000000     0.750170000000     0.0463225  
H6       H      0.738960000000     0.927400000000     0.779760000000     0.0349508  
H7       H      0.651470000000     0.913860000000     0.736050000000     0.035691   
H8       H      0.676760000000     0.965330000000     0.705050000000     0.0469683  
H9       H      0.956900000000     0.350690000000     0.554630000000     0.0468965  
H10      H      0.982420000000     0.402270000000     0.524320000000     0.0357568  
H11      H      0.895040000000     0.390180000000     0.482970000000     0.0349625  
H12      H      0.869580000000     0.338180000000     0.511870000000     0.0462877  
H13      H      0.856360000000     0.311160000000     0.580050000000     0.0463123  
H14      H      0.829850000000     0.259220000000     0.609070000000     0.034992   
H15      H      0.904300000000     0.246410000000     0.565700000000     0.0356155  
H16      H      0.930340000000     0.297990000000     0.535250000000     0.0468909  
H17      H      0.032380000000     0.673540000000     0.347700000000     0.0467461  
H18      H      0.058980000000     0.726160000000     0.320620000000     0.0346665  
H19      H      0.145310000000     0.735560000000     0.361480000000     0.034661   
H20      H      0.118860000000     0.683840000000     0.390610000000     0.0461631  
H21      H      0.093570000000     0.632780000000     0.370090000000     0.0461129  
H22      H      0.068300000000     0.581020000000     0.399170000000     0.0345603  
H23      H      0.990750000000     0.589920000000     0.438020000000     0.0348543  
H24      H      0.016720000000     0.642530000000     0.411020000000     0.0467938  
H25      H      0.600760000000     0.633530000000     0.873020000000     0.0469252  
H26      H      0.575000000000     0.581700000000     0.902470000000     0.0357624  
H27      H      0.498530000000     0.592230000000     0.942470000000     0.035009   
H28      H      0.524750000000     0.644450000000     0.914400000000     0.0462838  
H29      H      0.538930000000     0.671920000000     0.846510000000     0.0463065  
H30      H      0.563990000000     0.724050000000     0.818310000000     0.0350432  
H31      H      0.651240000000     0.737950000000     0.863920000000     0.0357986  
H32      H      0.626020000000     0.686120000000     0.893510000000     0.0469844  
H33      H      0.190910000000     0.978660000000     0.248890000000     0.0463066  
H34      H      0.164030000000     0.926510000000     0.277270000000     0.0349464  
H35      H      0.238230000000     0.913410000000     0.233560000000     0.0359001  
H36      H      0.264600000000     0.965120000000     0.203760000000     0.0469861  
H37      H      0.291520000000     0.017500000000     0.224060000000     0.0468236  
H38      H      0.317740000000     0.069200000000     0.194220000000     0.0357336  
H39      H      0.230950000000     0.058710000000     0.153070000000     0.0349842  
H40      H      0.204790000000     0.006560000000     0.181480000000     0.0461788  
H41      H      0.355640000000     0.310480000000     0.079460000000     0.0467731  
H42      H      0.329490000000     0.258170000000     0.107480000000     0.0346497  
H43      H      0.405910000000     0.247760000000     0.067230000000     0.0345012  
H44      H      0.431380000000     0.299290000000     0.037120000000     0.0461287  
H45      H      0.457350000000     0.350770000000     0.055810000000     0.0461461  
H46      H      0.483480000000     0.402340000000     0.025910000000     0.0345156  
H47      H      0.396640000000     0.392710000000     0.987450000000     0.0346982  
H48      H      0.370380000000     0.340340000000     0.015250000000     0.0467731  
H49      H      0.607770000000     0.792980000000     0.574990000000     0.0467484  
H50      H      0.604900000000     0.796280000000     0.654880000000     0.0355113  
H51      H      0.697730000000     0.813840000000     0.666650000000     0.035546   
H52      H      0.700380000000     0.810090000000     0.586530000000     0.0464606  
H53      H      0.702480000000     0.842540000000     0.524340000000     0.0469947  
H54      H      0.704780000000     0.848220000000     0.444310000000     0.0356926  
H55      H      0.614080000000     0.769210000000     0.433660000000     0.0353599  
H56      H      0.612040000000     0.763360000000     0.513800000000     0.0463612  
H57      H      0.699430000000     0.887100000000     0.015670000000     0.0460493  
H58      H      0.699270000000     0.881440000000     0.935730000000     0.0317613  
H59      H      0.604180000000     0.811260000000     0.940000000000     0.0329264  
H60      H      0.604640000000     0.814580000000     0.020040000000     0.0463619  
H61      H      0.605350000000     0.837640000000     0.084430000000     0.0460399  
H62      H      0.606140000000     0.832090000000     0.164360000000     0.032422   
H63      H      0.702390000000     0.861600000000     0.158990000000     0.0333295  
H64      H      0.701440000000     0.864630000000     0.079100000000     0.0463022  
H65      H      0.706850000000     0.686300000000     0.225190000000     0.0468879  
H66      H      0.731920000000     0.659750000000     0.195060000000     0.0357062  
H67      H      0.808620000000     0.746280000000     0.154130000000     0.0350264  
H68      H      0.783070000000     0.772780000000     0.182830000000     0.0462655  
H69      H      0.769420000000     0.786730000000     0.250460000000     0.0462378  
H70      H      0.744680000000     0.814060000000     0.279060000000     0.0349954  
H71      H      0.656970000000     0.740560000000     0.235340000000     0.0359098  
H72      H      0.681790000000     0.713740000000     0.205320000000     0.0468995  
H73      H      0.523760000000     0.887440000000     0.371210000000     0.0461525  
H74      H      0.497210000000     0.912650000000     0.400060000000     0.0346804  
H75      H      0.583510000000     0.990280000000     0.439200000000     0.0347979  
H76      H      0.610260000000     0.964310000000     0.412390000000     0.0468707  
H77      H      0.625740000000     0.948230000000     0.349400000000     0.0468032  
H78      H      0.651410000000     0.921220000000     0.322470000000     0.0346782  
H79      H      0.574180000000     0.835290000000     0.363770000000     0.0346529  
H80      H      0.549280000000     0.862120000000     0.392720000000     0.0461362  
H81      H      0.027500000000     0.553260000000     0.746980000000     0.0465484  
H82      H      0.025950000000     0.547350000000     0.827090000000     0.0356682  
H83      H      0.934820000000     0.468880000000     0.817370000000     0.0355753  
H84      H      0.936620000000     0.474650000000     0.737350000000     0.0469356  
H85      H      0.030770000000     0.523320000000     0.684990000000     0.0469897  
H86      H      0.032770000000     0.520210000000     0.604880000000     0.0355625  
H87      H      0.940430000000     0.504420000000     0.595810000000     0.0355071  
H88      H      0.938660000000     0.507900000000     0.676040000000     0.0465155  
H89      H      0.030960000000     0.504210000000     0.184750000000     0.0469345  
H90      H      0.032640000000     0.509290000000     0.104660000000     0.0355765  
H91      H      0.940870000000     0.431770000000     0.096040000000     0.0352542  
H92      H      0.939410000000     0.426540000000     0.176310000000     0.0464267  
H93      H      0.936980000000     0.457650000000     0.237480000000     0.0469971  
H94      H      0.935310000000     0.461860000000     0.317460000000     0.0355822  
H95      H      0.026980000000     0.475880000000     0.326960000000     0.0352877  
H96      H      0.028410000000     0.471290000000     0.246860000000     0.0464442  
H97      H      0.847280000000     0.545300000000     0.036550000000     0.0460898  
H98      H      0.821400000000     0.570730000000     0.067440000000     0.0344966  
H99      H      0.908420000000     0.646880000000     0.107630000000     0.0347977  
H100     H      0.934400000000     0.620770000000     0.078830000000     0.0468611  
H101     H      0.949170000000     0.606410000000     0.013960000000     0.04692    
H102     H      0.975270000000     0.580360000000     0.985340000000     0.0348484  
H103     H      0.898340000000     0.493290000000     0.023530000000     0.0345383  
H104     H      0.872910000000     0.519210000000     0.054230000000     0.0461322  
H105     H      0.367580000000     0.172340000000     0.854810000000     0.0468661  
H106     H      0.369750000000     0.178270000000     0.774840000000     0.0354153  
H107     H      0.277050000000     0.102550000000     0.764710000000     0.0355438  
H108     H      0.275110000000     0.096460000000     0.844860000000     0.0465556  
H109     H      0.273460000000     0.127250000000     0.907090000000     0.0469984  
H110     H      0.271800000000     0.130720000000     0.987200000000     0.035582   
H111     H      0.362480000000     0.142120000000     0.996120000000     0.0353483  
H112     H      0.363890000000     0.138270000000     0.915900000000     0.0464654  
H113     H      0.275370000000     0.147440000000     0.407090000000     0.0469219  
H114     H      0.273460000000     0.142160000000     0.487100000000     0.0354564  
H115     H      0.366640000000     0.217090000000     0.496030000000     0.0354116  
H116     H      0.368340000000     0.222560000000     0.415750000000     0.0465142  
H117     H      0.279160000000     0.180840000000     0.345370000000     0.0464591  
H118     H      0.280100000000     0.176030000000     0.265290000000     0.0354559  
H119     H      0.370540000000     0.186810000000     0.274010000000     0.03562    
H120     H      0.369340000000     0.191190000000     0.354020000000     0.0469432  
H121     H      0.349530000000     0.047290000000     0.537510000000     0.0468701  
H122     H      0.323640000000     0.072990000000     0.567940000000     0.0356824  
H123     H      0.410740000000     0.148470000000     0.609700000000     0.0350527  
H124     H      0.436530000000     0.122330000000     0.580660000000     0.046281   
H125     H      0.449950000000     0.108980000000     0.512180000000     0.0462407  
H126     H      0.476910000000     0.084000000000     0.483110000000     0.035008   
H127     H      0.403020000000     0.996410000000     0.526530000000     0.036117   
H128     H      0.376550000000     0.021500000000     0.556960000000     0.0468804  
H129     H      0.113690000000     0.439140000000     0.844380000000     0.046297   
H130     H      0.140700000000     0.413950000000     0.816330000000     0.0349818  
H131     H      0.066350000000     0.326560000000     0.859470000000     0.035636   
H132     H      0.039820000000     0.351850000000     0.888960000000     0.0468489  
H133     H      0.013030000000     0.377480000000     0.868470000000     0.0468611  
H134     H      0.986810000000     0.403030000000     0.898040000000     0.0358138  
H135     H      0.073520000000     0.479010000000     0.939990000000     0.034994   
H136     H      0.099680000000     0.452960000000     0.911840000000     0.0462711  
H137     H      0.207370000000     0.198700000000     0.679800000000     0.0463146  
H138     H      0.232970000000     0.172230000000     0.651260000000     0.0349683  
H139     H      0.320140000000     0.247380000000     0.693500000000     0.0356529  
H140     H      0.294440000000     0.273380000000     0.723460000000     0.0468457  
H141     H      0.193760000000     0.212250000000     0.747820000000     0.0463037  
H142     H      0.166980000000     0.237530000000     0.776360000000     0.0349903  
H143     H      0.241580000000     0.324920000000     0.733720000000     0.0356122  
H144     H      0.267890000000     0.299530000000     0.703760000000     0.0468541  
H145     H      0.502310000000     0.459830000000     0.740070000000     0.0469928  
H146     H      0.508130000000     0.463630000000     0.820100000000     0.0355145  
H147     H      0.430230000000     0.477220000000     0.830050000000     0.0355259  
H148     H      0.424290000000     0.473060000000     0.749940000000     0.0465443  
H149     H      0.468700000000     0.428780000000     0.678850000000     0.0465026  
H150     H      0.472130000000     0.434030000000     0.598620000000     0.0355153  
H151     H      0.457550000000     0.511350000000     0.607780000000     0.0355141  
H152     H      0.454490000000     0.506230000000     0.687910000000     0.0469335  
H153     H      0.473570000000     0.524860000000     0.187590000000     0.047042   
H154     H      0.468350000000     0.521260000000     0.107530000000     0.0355681  
H155     H      0.545420000000     0.506250000000     0.099040000000     0.0352333  
H156     H      0.550790000000     0.510230000000     0.179280000000     0.0464142  
H157     H      0.519600000000     0.476990000000     0.240680000000     0.0469578  
H158     H      0.515380000000     0.471290000000     0.320670000000     0.0355759  
H159     H      0.502090000000     0.549430000000     0.329620000000     0.0352713  
H160     H      0.506710000000     0.555270000000     0.249480000000     0.0464973  
H161     H      0.881010000000     0.175030000000     0.843480000000     0.0464967  
H162     H      0.874810000000     0.171020000000     0.763370000000     0.0355992  
H163     H      0.798970000000     0.187810000000     0.773970000000     0.0353772  
H164     H      0.805020000000     0.191450000000     0.853940000000     0.0468403  
H165     H      0.839220000000     0.221830000000     0.914920000000     0.046407   
H166     H      0.835700000000     0.216610000000     0.995150000000     0.0353585  
H167     H      0.847260000000     0.137430000000     0.985950000000     0.0355407  
H168     H      0.850410000000     0.142520000000     0.905800000000     0.0469315  
H169     H      0.754930000000     0.142220000000     0.414290000000     0.0464901  
H170     H      0.760250000000     0.146110000000     0.494590000000     0.0355085  
H171     H      0.834800000000     0.127210000000     0.486470000000     0.0355356  
H172     H      0.829720000000     0.123780000000     0.406470000000     0.0468989  
H173     H      0.786380000000     0.174320000000     0.352650000000     0.0469435  
H174     H      0.791090000000     0.179950000000     0.272680000000     0.0356986  
H175     H      0.801900000000     0.100290000000     0.264470000000     0.0355303  
H176     H      0.796710000000     0.094470000000     0.344540000000     0.0465002  
H177     H      0.166010000000     0.371600000000     0.572550000000     0.0468385  
H178     H      0.171830000000     0.373710000000     0.652520000000     0.0354119  
H179     H      0.096550000000     0.280760000000     0.662360000000     0.0355036  
H180     H      0.090550000000     0.278880000000     0.582190000000     0.0464997  
H181     H      0.121460000000     0.277520000000     0.520030000000     0.0470076  
H182     H      0.125150000000     0.276010000000     0.439950000000     0.0355529  
H183     H      0.136160000000     0.366540000000     0.431170000000     0.0352917  
H184     H      0.132060000000     0.367780000000     0.511360000000     0.0464163  
H185     H      0.185430000000     0.373650000000     0.073270000000     0.046899   
H186     H      0.181280000000     0.374910000000     0.153310000000     0.035629   
H187     H      0.170390000000     0.284420000000     0.161930000000     0.0354826  
H188     H      0.174980000000     0.283430000000     0.081810000000     0.0464481  
H189     H      0.216580000000     0.372570000000     0.011340000000     0.0465404  
H190     H      0.210930000000     0.370800000000     0.931090000000     0.03544    
H191     H      0.136010000000     0.277630000000     0.940320000000     0.035449   
H192     H      0.141450000000     0.279620000000     0.020310000000     0.0469202  
H193     H      0.000470000000     0.209960000000     0.246470000000     0.0461561  
H194     H      0.052690000000     0.235750000000     0.274610000000     0.0349469  
H195     H      0.064190000000     0.322760000000     0.232530000000     0.0356729  
H196     H      0.012440000000     0.296920000000     0.202910000000     0.0468194  
H197     H      0.960200000000     0.270800000000     0.223420000000     0.046898   
H198     H      0.908450000000     0.244960000000     0.193790000000     0.0356803  
H199     H      0.919960000000     0.169550000000     0.151350000000     0.0349698  
H200     H      0.972180000000     0.195910000000     0.179490000000     0.046288   
H201     H      0.345380000000     0.460970000000     0.371720000000     0.0461244  
H202     H      0.396910000000     0.486960000000     0.401750000000     0.0345716  
H203     H      0.386960000000     0.400000000000     0.440300000000     0.0347738  
H204     H      0.334620000000     0.373880000000     0.412360000000     0.0467646  
H205     H      0.304710000000     0.359180000000     0.348170000000     0.0467946  
H206     H      0.252410000000     0.333210000000     0.320100000000     0.0346224  
H207     H      0.242410000000     0.409910000000     0.360210000000     0.0345118  
H208     H      0.293910000000     0.435170000000     0.390370000000     0.0461562  
H209     H      0.547350000000     0.042030000000     0.746760000000     0.04601    
H210     H      0.540980000000     0.041930000000     0.826600000000     0.032078   
H211     H      0.473460000000     0.945910000000     0.822460000000     0.0331662  
H212     H      0.477420000000     0.946210000000     0.742580000000     0.0463551  
H213     H      0.501600000000     0.947380000000     0.679320000000     0.0460366  
H214     H      0.496490000000     0.947220000000     0.599230000000     0.0320308  
H215     H      0.522860000000     0.042740000000     0.602130000000     0.0331547  
H216     H      0.525340000000     0.042630000000     0.682150000000     0.0463675  
H217     H      0.424870000000     0.949640000000     0.249110000000     0.0464498  
H218     H      0.431450000000     0.951700000000     0.329160000000     0.0353064  
H219     H      0.508780000000     0.043420000000     0.317930000000     0.0356683  
H220     H      0.502370000000     0.041110000000     0.238050000000     0.0469571  
H221     H      0.468660000000     0.038160000000     0.176960000000     0.0464235  
H222     H      0.472140000000     0.036090000000     0.096720000000     0.0352527  
H223     H      0.457780000000     0.944320000000     0.106870000000     0.0356854  
H224     H      0.454720000000     0.946630000000     0.186910000000     0.0469389  
H225     H      0.678770000000     0.127500000000     0.035550000000     0.0461278  
H226     H      0.730240000000     0.153780000000     0.065780000000     0.0344932  
H227     H      0.720290000000     0.067180000000     0.106360000000     0.0347913  
H228     H      0.667990000000     0.040780000000     0.078210000000     0.0468249  
H229     H      0.637920000000     0.025480000000     0.014040000000     0.0468667  
H230     H      0.585520000000     0.999380000000     0.986150000000     0.0350528  
H231     H      0.575890000000     0.076560000000     0.024720000000     0.0346884  
H232     H      0.627400000000     0.101940000000     0.054660000000     0.0461155  
H233     H      0.168350000000     0.886480000000     0.584520000000     0.0464804  
H234     H      0.164340000000     0.879920000000     0.664630000000     0.0355392  
H235     H      0.182470000000     0.805010000000     0.653080000000     0.0355402  
H236     H      0.186040000000     0.811350000000     0.573220000000     0.0468134  
H237     H      0.215760000000     0.845420000000     0.512210000000     0.0464428  
H238     H      0.210100000000     0.841600000000     0.432040000000     0.0353521  
H239     H      0.130710000000     0.852740000000     0.442130000000     0.0356847  
H240     H      0.136190000000     0.856110000000     0.522160000000     0.0469848  
H241     H      0.091760000000     0.808060000000     0.014090000000     0.0460422  
H242     H      0.097140000000     0.813520000000     0.934100000000     0.0316404  
H243     H      0.168050000000     0.789580000000     0.937920000000     0.0328408  
H244     H      0.164990000000     0.786770000000     0.017980000000     0.0463696  
H245     H      0.142290000000     0.764380000000     0.082530000000     0.0460523  
H246     H      0.148000000000     0.770810000000     0.162430000000     0.0323408  
H247     H      0.117480000000     0.836790000000     0.157190000000     0.0332812  
H248     H      0.114290000000     0.832730000000     0.077320000000     0.0463741  
H249     H      0.292410000000     0.936790000000     0.890490000000     0.0470095  
H250     H      0.240590000000     0.910000000000     0.860810000000     0.0358956  
H251     H      0.254540000000     0.836350000000     0.816930000000     0.0350851  
H252     H      0.306630000000     0.863570000000     0.845260000000     0.0462772  
H253     H      0.333600000000     0.877080000000     0.913690000000     0.0462479  
H254     H      0.385710000000     0.902980000000     0.942080000000     0.0350794  
H255     H      0.397000000000     0.989910000000     0.899910000000     0.0359648  
H256     H      0.345200000000     0.963890000000     0.870190000000     0.0469934  
H257     H      0.785660000000     0.609230000000     0.855710000000     0.0468684  
H258     H      0.789670000000     0.606900000000     0.775800000000     0.0353828  
H259     H      0.806930000000     0.699690000000     0.764990000000     0.0355732  
H260     H      0.802550000000     0.701790000000     0.845050000000     0.0465745  
H261     H      0.834660000000     0.703440000000     0.907760000000     0.0469718  
H262     H      0.839410000000     0.705210000000     0.987930000000     0.0355688  
H263     H      0.759950000000     0.614660000000     0.996570000000     0.0353274  
H264     H      0.755070000000     0.613140000000     0.916290000000     0.0464431  
H265     H      0.853530000000     0.700900000000     0.407890000000     0.04695    
H266     H      0.850460000000     0.702790000000     0.487920000000     0.0354854  
H267     H      0.830280000000     0.608950000000     0.496390000000     0.0353922  
H268     H      0.833800000000     0.607270000000     0.416050000000     0.0465327  
H269     H      0.882470000000     0.696530000000     0.345910000000     0.0465115  
H270     H      0.876520000000     0.695880000000     0.265880000000     0.0355729  
H271     H      0.795900000000     0.606140000000     0.274570000000     0.0356474  
H272     H      0.801680000000     0.607070000000     0.354530000000     0.0469301  
H273     H      0.679730000000     0.628810000000     0.537830000000     0.0468659  
H274     H      0.731390000000     0.654000000000     0.567930000000     0.0356646  
H275     H      0.718010000000     0.566510000000     0.611340000000     0.0349656  
H276     H      0.665980000000     0.541420000000     0.582670000000     0.04626    
H277     H      0.638630000000     0.527750000000     0.514740000000     0.0462719  
H278     H      0.586580000000     0.501710000000     0.485980000000     0.0349341  
H279     H      0.575560000000     0.577610000000     0.527450000000     0.0357204  
H280     H      0.627170000000     0.603160000000     0.557620000000     0.0468886  
H281     H      0.959740000000     0.680110000000     0.723750000000     0.0469323  
H282     H      0.908050000000     0.654800000000     0.693520000000     0.0356556  
H283     H      0.920750000000     0.742410000000     0.652110000000     0.0350392  
H284     H      0.972710000000     0.767580000000     0.680950000000     0.0464077  
H285     H      0.012790000000     0.706890000000     0.704680000000     0.0468557  
H286     H      0.064490000000     0.733320000000     0.734960000000     0.0355238  
H287     H      0.050940000000     0.807250000000     0.778620000000     0.0349076  
H288     H      0.999020000000     0.780440000000     0.749750000000     0.0464233  
O1       O      0.866040000000     0.697950000000     0.645330000000    -0.386743   
O2       O      0.776600000000     0.656670000000     0.609910000000    -0.385831   
O3       O      0.809780000000     0.676090000000     0.692200000000    -0.386495   
O4       O      0.832920000000     0.678670000000     0.563430000000    -0.387413   
O5       O      0.829150000000     0.632810000000     0.570320000000    -0.38526    
O6       O      0.806170000000     0.630330000000     0.699390000000    -0.386359   
O7       O      0.772970000000     0.610910000000     0.617470000000    -0.386609   
O8       O      0.862460000000     0.652200000000     0.652640000000    -0.385612   
O9       O      0.105830000000     0.818120000000     0.784100000000    -0.387277   
O10      O      0.195120000000     0.866930000000     0.819880000000    -0.38554    
O11      O      0.162030000000     0.853380000000     0.737440000000    -0.38559    
O12      O      0.138570000000     0.831500000000     0.866040000000    -0.385973   
O13      O      0.144140000000     0.790430000000     0.858560000000    -0.385683   
O14      O      0.165850000000     0.811390000000     0.729420000000    -0.386864   
O15      O      0.199630000000     0.825410000000     0.810710000000    -0.386852   
O16      O      0.109940000000     0.776250000000     0.776740000000    -0.385217   
O17      O      0.531960000000     0.036180000000     0.978110000000    -0.387449   
O18      O      0.443020000000     0.993460000000     0.940430000000    -0.38592    
O19      O      0.475240000000     0.012890000000     0.023480000000    -0.386032   
O20      O      0.500190000000     0.016870000000     0.895070000000    -0.385186   
O21      O      0.495800000000     0.970660000000     0.901500000000    -0.386446   
O22      O      0.473750000000     0.968090000000     0.030740000000    -0.386728   
O23      O      0.440040000000     0.948080000000     0.949330000000    -0.386485   
O24      O      0.529960000000     0.991000000000     0.983040000000    -0.384287   
O25      O      0.198460000000     0.369550000000     0.312900000000    -0.386778   
O26      O      0.109560000000     0.326280000000     0.274720000000    -0.38631    
O27      O      0.141460000000     0.345010000000     0.357990000000    -0.386705   
O28      O      0.166700000000     0.350840000000     0.229540000000    -0.386369   
O29      O      0.164120000000     0.305440000000     0.234900000000    -0.386394   
O30      O      0.140120000000     0.300220000000     0.363820000000    -0.386501   
O31      O      0.107380000000     0.281120000000     0.281420000000    -0.385599   
O32      O      0.196920000000     0.324570000000     0.317270000000    -0.384964   
O33      O      0.774120000000     0.157450000000     0.113380000000    -0.386741   
O34      O      0.863040000000     0.203170000000     0.151500000000    -0.386164   
O35      O      0.831060000000     0.190010000000     0.068270000000    -0.386783   
O36      O      0.805890000000     0.170530000000     0.196690000000    -0.386596   
O37      O      0.808570000000     0.127770000000     0.191390000000    -0.386075   
O38      O      0.832460000000     0.146590000000     0.062360000000    -0.385835   
O39      O      0.865280000000     0.160230000000     0.144750000000    -0.385916   
O40      O      0.775750000000     0.114050000000     0.109040000000    -0.384925   
O41      O      0.529960000000     0.535710000000     0.485870000000    -0.386468   
O42      O      0.440940000000     0.490230000000     0.448380000000    -0.386957   
O43      O      0.473060000000     0.502950000000     0.531460000000    -0.386451   
O44      O      0.497780000000     0.522860000000     0.402890000000    -0.386485   
O45      O      0.499160000000     0.479450000000     0.396480000000    -0.386482   
O46      O      0.475660000000     0.460180000000     0.525430000000    -0.386639   
O47      O      0.442480000000     0.446810000000     0.443330000000    -0.384673   
O48      O      0.532140000000     0.492770000000     0.478590000000    -0.385793   
O49      O      0.156720000000     0.282100000000     0.782580000000    -0.386624   
O50      O      0.108880000000     0.323740000000     0.817830000000    -0.385882   
O51      O      0.122590000000     0.304270000000     0.735570000000    -0.386063   
O52      O      0.143010000000     0.301510000000     0.864470000000    -0.387118   
O53      O      0.185230000000     0.347240000000     0.857570000000    -0.385789   
O54      O      0.164830000000     0.349970000000     0.728590000000    -0.386833   
O55      O      0.151130000000     0.369420000000     0.810470000000    -0.386438   
O56      O      0.198980000000     0.327770000000     0.775270000000    -0.385766   
O57      O      0.277890000000     0.162480000000     0.644750000000    -0.386486   
O58      O      0.320290000000     0.115380000000     0.609260000000    -0.385571   
O59      O      0.300530000000     0.128710000000     0.691610000000    -0.386169   
O60      O      0.297550000000     0.149120000000     0.562790000000    -0.387225   
O61      O      0.343070000000     0.191590000000     0.569720000000    -0.385736   
O62      O      0.346010000000     0.171210000000     0.698690000000    -0.386664   
O63      O      0.365730000000     0.157910000000     0.616710000000    -0.386632   
O64      O      0.323350000000     0.205000000000     0.652080000000    -0.385928   
O65      O      0.982900000000     0.444870000000     0.939540000000    -0.386358   
O66      O      0.939150000000     0.490170000000     0.976850000000    -0.387158   
O67      O      0.958610000000     0.477520000000     0.893830000000    -0.386219   
O68      O      0.963470000000     0.457690000000     0.022470000000    -0.386388   
O69      O      0.008200000000     0.501150000000     0.028860000000    -0.386647   
O70      O      0.003890000000     0.520390000000     0.899920000000    -0.386732   
O71      O      0.984030000000     0.533640000000     0.981980000000    -0.384925   
O72      O      0.027950000000     0.487890000000     0.946810000000    -0.385847   
O73      O      0.654590000000     0.783060000000     0.277530000000    -0.385984   
O74      O      0.613540000000     0.830700000000     0.316130000000    -0.387554   
O75      O      0.631640000000     0.817420000000     0.232740000000    -0.385408   
O76      O      0.636310000000     0.796580000000     0.360960000000    -0.386303   
O77      O      0.681500000000     0.839480000000     0.367630000000    -0.385915   
O78      O      0.678280000000     0.858720000000     0.238300000000    -0.385851   
O79      O      0.659130000000     0.873440000000     0.320200000000    -0.38387    
O80      O      0.700430000000     0.824950000000     0.285820000000    -0.385959   
O81      O      0.773560000000     0.655520000000     0.153270000000    -0.385985   
O82      O      0.818290000000     0.611320000000     0.115000000000    -0.386531   
O83      O      0.805610000000     0.630300000000     0.198390000000    -0.386313   
O84      O      0.786340000000     0.636440000000     0.069950000000    -0.38655    
O85      O      0.830080000000     0.680960000000     0.064120000000    -0.386159   
O86      O      0.848740000000     0.675410000000     0.193050000000    -0.38626    
O87      O      0.862000000000     0.656040000000     0.110640000000    -0.38528    
O88      O      0.816860000000     0.700370000000     0.146580000000    -0.386068   
O89      O      0.493030000000     0.952490000000     0.446950000000    -0.387856   
O90      O      0.445570000000     0.993830000000     0.484950000000    -0.386047   
O91      O      0.458620000000     0.974820000000     0.401810000000    -0.386292   
O92      O      0.480230000000     0.971400000000     0.530060000000    -0.385357   
O93      O      0.521490000000     0.017990000000     0.523500000000    -0.386192   
O94      O      0.501440000000     0.019990000000     0.394280000000    -0.386503   
O95      O      0.487410000000     0.039610000000     0.475810000000    -0.38602    
O96      O      0.535730000000     0.998040000000     0.441860000000    -0.383718   
O97      O      0.321630000000     0.114920000000     0.152550000000    -0.386079   
O98      O      0.365390000000     0.203870000000     0.114540000000    -0.386837   
O99      O      0.346410000000     0.172060000000     0.197820000000    -0.386504   
O100     O      0.340670000000     0.146900000000     0.069350000000    -0.386445   
O101     O      0.296010000000     0.145840000000     0.063360000000    -0.386233   
O102     O      0.301150000000     0.169760000000     0.192320000000    -0.386346   
O103     O      0.320540000000     0.202600000000     0.110030000000    -0.38509    
O104     O      0.276620000000     0.113050000000     0.145710000000    -0.385742   
O105     O      0.486880000000     0.446520000000     0.979490000000    -0.387173   
O106     O      0.532610000000     0.535660000000     0.942670000000    -0.386465   
O107     O      0.519570000000     0.503150000000     0.025410000000    -0.386196   
O108     O      0.499730000000     0.478880000000     0.896640000000    -0.386158   
O109     O      0.456990000000     0.481530000000     0.902850000000    -0.38685    
O110     O      0.476250000000     0.504700000000     0.031850000000    -0.386765   
O111     O      0.489710000000     0.537910000000     0.949970000000    -0.386018   
O112     O      0.443540000000     0.448180000000     0.984720000000    -0.384865   
O113     O      0.149380000000     0.779510000000     0.314220000000    -0.387484   
O114     O      0.196060000000     0.868260000000     0.275710000000    -0.386118   
O115     O      0.182870000000     0.836440000000     0.359120000000    -0.38616    
O116     O      0.162310000000     0.810920000000     0.230850000000    -0.385264   
O117     O      0.120630000000     0.815630000000     0.236410000000    -0.386142   
O118     O      0.139630000000     0.838130000000     0.365690000000    -0.386283   
O119     O      0.153810000000     0.871590000000     0.283910000000    -0.386039   
O120     O      0.106300000000     0.781760000000     0.318270000000    -0.384049   
O121     O      0.027930000000     0.536710000000     0.445660000000    -0.387192   
O122     O      0.985470000000     0.447680000000     0.482920000000    -0.386475   
O123     O      0.004500000000     0.480000000000     0.400040000000    -0.38666    
O124     O      0.008880000000     0.504460000000     0.528620000000    -0.386732   
O125     O      0.963210000000     0.501200000000     0.522550000000    -0.386471   
O126     O      0.959420000000     0.478000000000     0.393510000000    -0.386318   
O127     O      0.940060000000     0.444850000000     0.475540000000    -0.385861   
O128     O      0.982690000000     0.534540000000     0.440550000000    -0.384655   
O129     O      0.814240000000     0.111710000000     0.644020000000    -0.386365   
O130     O      0.861980000000     0.201090000000     0.607990000000    -0.385664   
O131     O      0.848430000000     0.168140000000     0.690520000000    -0.386343   
O132     O      0.827880000000     0.144560000000     0.561870000000    -0.387272   
O133     O      0.785660000000     0.148120000000     0.568540000000    -0.385051   
O134     O      0.806130000000     0.171510000000     0.697530000000    -0.386363   
O135     O      0.819700000000     0.204460000000     0.615390000000    -0.386793   
O136     O      0.771950000000     0.115110000000     0.651090000000    -0.385912   
O137     O      0.653960000000     0.783290000000     0.822000000000    -0.385417   
O138     O      0.694800000000     0.872540000000     0.785780000000    -0.386883   
O139     O      0.675440000000     0.840000000000     0.867890000000    -0.385936   
O140     O      0.673550000000     0.816220000000     0.739410000000    -0.385553   
O141     O      0.627850000000     0.812650000000     0.731350000000    -0.386724   
O142     O      0.628880000000     0.834650000000     0.860450000000    -0.385198   
O143     O      0.648900000000     0.868650000000     0.778460000000    -0.385239   
O144     O      0.608040000000     0.779030000000     0.812790000000    -0.387127   


