data_structure

_audit_creation_method RASPA-1.0
_audit_creation_date 2023-5-22
_audit_author_name 'Poobodin Mano'

_cell_length_a    46.2238
_cell_length_b    46.2235
_cell_length_c    30.8514
_cell_angle_alpha 90
_cell_angle_beta  90
_cell_angle_gamma 90
_cell_volume      65917.9

_symmetry_cell_setting          triclinic
_symmetry_space_group_name_Hall 'P 1'
_symmetry_space_group_name_H-M  'P 1'
_symmetry_Int_Tables_number     1

_symmetry_equiv_pos_as_xyz 'x,y,z'

loop_
_atom_site_label
_atom_site_type_symbol
_atom_site_fract_x
_atom_site_fract_y
_atom_site_fract_z
_atom_site_charge
C1       C      0.545130000000     0.820550000000     0.989740000000     0.356484   
C2       C      0.430160000000     0.820500000000     0.989380000000     0.356318   
C3       C      0.487550000000     0.820540000000     0.075740000000     0.356322   
C4       C      0.487710000000     0.820510000000     0.903470000000     0.356438   
C5       C      0.429770000000     0.820490000000     0.489320000000     0.356596   
C6       C      0.544740000000     0.820530000000     0.489930000000     0.356468   
C7       C      0.487420000000     0.820520000000     0.403480000000     0.356369   
C8       C      0.487100000000     0.820490000000     0.575750000000     0.356461   
C9       C      0.821050000000     0.544820000000     0.984460000000     0.356315   
C10      C      0.821110000000     0.429860000000     0.984860000000     0.356372   
C11      C      0.821060000000     0.487420000000     0.070730000000     0.356435   
C12      C      0.821090000000     0.487240000000     0.898460000000     0.35637    
C13      C      0.821130000000     0.429510000000     0.484880000000     0.356577   
C14      C      0.820990000000     0.544480000000     0.484250000000     0.356486   
C15      C      0.821040000000     0.486840000000     0.398440000000     0.356397   
C16      C      0.821070000000     0.487170000000     0.570710000000     0.356355   
C17      C      0.545670000000     0.154030000000     0.984870000000     0.356551   
C18      C      0.430700000000     0.154100000000     0.985980000000     0.356466   
C19      C      0.488500000000     0.154060000000     0.071510000000     0.356455   
C20      C      0.487880000000     0.154090000000     0.899240000000     0.356401   
C21      C      0.430990000000     0.154200000000     0.485280000000     0.356684   
C22      C      0.545960000000     0.153900000000     0.485380000000     0.35653    
C23      C      0.488530000000     0.154030000000     0.399220000000     0.356388   
C24      C      0.488400000000     0.154070000000     0.571490000000     0.356384   
C25      C      0.154500000000     0.544920000000     0.990040000000     0.356541   
C26      C      0.154700000000     0.429950000000     0.988970000000     0.356282   
C27      C      0.154620000000     0.487140000000     0.075680000000     0.356325   
C28      C      0.154600000000     0.487740000000     0.903410000000     0.35644    
C29      C      0.154830000000     0.430170000000     0.489620000000     0.356589   
C30      C      0.154340000000     0.545140000000     0.489510000000     0.356528   
C31      C      0.154600000000     0.487580000000     0.403420000000     0.356359   
C32      C      0.154570000000     0.487720000000     0.575690000000     0.35643    
C33      C      0.820780000000     0.762990000000     0.986700000000     0.356445   
C34      C      0.820760000000     0.877960000000     0.988180000000     0.356365   
C35      C      0.763300000000     0.820490000000     0.988180000000     0.356435   
C36      C      0.878270000000     0.820440000000     0.987020000000     0.356382   
C37      C      0.820400000000     0.762640000000     0.485870000000     0.356397   
C38      C      0.820400000000     0.877610000000     0.488220000000     0.356644   
C39      C      0.762910000000     0.820180000000     0.488270000000     0.356453   
C40      C      0.877870000000     0.820080000000     0.485910000000     0.356453   
C41      C      0.821280000000     0.211690000000     0.986820000000     0.356459   
C42      C      0.821330000000     0.096710000000     0.987050000000     0.356359   
C43      C      0.763830000000     0.154140000000     0.986060000000     0.356545   
C44      C      0.878800000000     0.154290000000     0.987620000000     0.356509   
C45      C      0.821580000000     0.211320000000     0.487220000000     0.356489   
C46      C      0.821620000000     0.096350000000     0.488430000000     0.356408   
C47      C      0.764120000000     0.153790000000     0.486880000000     0.356562   
C48      C      0.879090000000     0.153830000000     0.488680000000     0.356535   
C49      C      0.155040000000     0.211790000000     0.987410000000     0.356385   
C50      C      0.155030000000     0.096810000000     0.987830000000     0.35654    
C51      C      0.212530000000     0.154250000000     0.987840000000     0.356385   
C52      C      0.097550000000     0.154330000000     0.987490000000     0.356421   
C53      C      0.155350000000     0.211990000000     0.487920000000     0.356386   
C54      C      0.155320000000     0.097020000000     0.486320000000     0.356518   
C55      C      0.212810000000     0.154500000000     0.486520000000     0.356277   
C56      C      0.097840000000     0.154530000000     0.487840000000     0.356361   
C57      C      0.154630000000     0.878060000000     0.987610000000     0.356436   
C58      C      0.154420000000     0.763080000000     0.989050000000     0.356335   
C59      C      0.097020000000     0.820620000000     0.988250000000     0.356396   
C60      C      0.212000000000     0.820510000000     0.988200000000     0.35646    
C61      C      0.154020000000     0.763300000000     0.487480000000     0.356452   
C62      C      0.154140000000     0.878270000000     0.485420000000     0.356534   
C63      C      0.211580000000     0.820720000000     0.487020000000     0.356422   
C64      C      0.096610000000     0.820850000000     0.485770000000     0.356332   
C65      C      0.162470000000     0.955910000000     0.447690000000    -0.0656329  
C66      C      0.154580000000     0.971530000000     0.485040000000     0.0226212  
C67      C      0.146350000000     0.956050000000     0.522330000000    -0.0658852  
C68      C      0.146320000000     0.925840000000     0.522430000000     0.0235944  
C69      C      0.154150000000     0.910300000000     0.485090000000    -0.105195   
C70      C      0.162080000000     0.925660000000     0.447640000000     0.0234597  
C71      C      0.154950000000     0.003770000000     0.485210000000     0.0226591  
C72      C      0.163390000000     0.019100000000     0.522550000000    -0.0658071  
C73      C      0.163370000000     0.049330000000     0.522960000000     0.0234683  
C74      C      0.155270000000     0.065000000000     0.485880000000    -0.105282   
C75      C      0.147100000000     0.049760000000     0.448400000000     0.0234508  
C76      C      0.146780000000     0.019520000000     0.448150000000    -0.0657864  
C77      C      0.146810000000     0.019070000000     0.024950000000    -0.0656473  
C78      C      0.154870000000     0.003560000000     0.987590000000     0.0226518  
C79      C      0.163020000000     0.019140000000     0.950350000000    -0.0658724  
C80      C      0.162900000000     0.049370000000     0.950390000000     0.0235854  
C81      C      0.155020000000     0.064790000000     0.987830000000    -0.105336   
C82      C      0.147080000000     0.049310000000     0.025160000000     0.0236813  
C83      C      0.154850000000     0.971310000000     0.987480000000     0.0226173  
C84      C      0.162940000000     0.955740000000     0.024760000000    -0.0658004  
C85      C      0.162710000000     0.925520000000     0.024810000000     0.0236794  
C86      C      0.154780000000     0.910080000000     0.987420000000    -0.105322   
C87      C      0.146940000000     0.925530000000     0.950020000000     0.023596   
C88      C      0.146780000000     0.955780000000     0.950130000000    -0.0656871  
C89      C      0.956850000000     0.145930000000     0.451680000000    -0.0658638  
C90      C      0.972350000000     0.154080000000     0.488980000000     0.022656   
C91      C      0.956760000000     0.161980000000     0.526360000000    -0.0656986  
C92      C      0.926510000000     0.161670000000     0.526420000000     0.0234498  
C93      C      0.911120000000     0.153790000000     0.488970000000    -0.105163   
C94      C      0.926630000000     0.145970000000     0.451590000000     0.0235162  
C95      C      0.004590000000     0.154350000000     0.488820000000     0.0226141  
C96      C      0.020310000000     0.146090000000     0.525880000000    -0.0657591  
C97      C      0.050550000000     0.146350000000     0.525660000000     0.0234276  
C98      C      0.065820000000     0.154530000000     0.488220000000    -0.105236   
C99      C      0.050180000000     0.162680000000     0.451130000000     0.0234472  
C100     C      0.019960000000     0.162770000000     0.451510000000    -0.0657734  
C101     C      0.956510000000     0.162460000000     0.950520000000    -0.0658951  
C102     C      0.972050000000     0.154370000000     0.987820000000     0.0226323  
C103     C      0.956490000000     0.146350000000     0.025170000000    -0.0656163  
C104     C      0.926250000000     0.146560000000     0.025260000000     0.0236744  
C105     C      0.910820000000     0.154400000000     0.987840000000    -0.105338   
C106     C      0.926280000000     0.162280000000     0.950450000000     0.0236313  
C107     C      0.004300000000     0.154320000000     0.987730000000     0.0226352  
C108     C      0.019800000000     0.146200000000     0.950370000000    -0.0657211  
C109     C      0.050040000000     0.146420000000     0.950170000000     0.0236266  
C110     C      0.065530000000     0.154360000000     0.987490000000    -0.105313   
C111     C      0.050130000000     0.162290000000     0.024920000000     0.0236292  
C112     C      0.019900000000     0.162460000000     0.024960000000    -0.0658356  
C113     C      0.955440000000     0.828500000000     0.447950000000    -0.0656705  
C114     C      0.971120000000     0.820320000000     0.485100000000     0.0226646  
C115     C      0.955700000000     0.811870000000     0.522340000000    -0.0658505  
C116     C      0.925480000000     0.811910000000     0.522600000000     0.0235629  
C117     C      0.909890000000     0.820020000000     0.485450000000    -0.1052     
C118     C      0.925190000000     0.828170000000     0.448040000000     0.0235504  
C119     C      0.003360000000     0.820630000000     0.485120000000     0.0226828  
C120     C      0.019030000000     0.812820000000     0.447780000000    -0.0657629  
C121     C      0.049270000000     0.813120000000     0.447880000000     0.0235594  
C122     C      0.064590000000     0.820860000000     0.485470000000    -0.105171   
C123     C      0.049020000000     0.828570000000     0.522830000000     0.023624   
C124     C      0.018790000000     0.828650000000     0.522570000000    -0.0657813  
C125     C      0.812330000000     0.955460000000     0.451820000000    -0.065897   
C126     C      0.820830000000     0.970860000000     0.489050000000     0.0226878  
C127     C      0.829000000000     0.955160000000     0.526190000000    -0.0657004  
C128     C      0.828600000000     0.924910000000     0.526100000000     0.0236091  
C129     C      0.820400000000     0.909630000000     0.488700000000    -0.105302   
C130     C      0.812310000000     0.925240000000     0.451560000000     0.0236288  
C131     C      0.821210000000     0.003100000000     0.489050000000     0.0226817  
C132     C      0.829240000000     0.018520000000     0.451590000000    -0.0657697  
C133     C      0.829230000000     0.048750000000     0.451340000000     0.0236012  
C134     C      0.821570000000     0.064330000000     0.488720000000    -0.105173   
C135     C      0.813820000000     0.049020000000     0.526310000000     0.0235721  
C136     C      0.813460000000     0.018780000000     0.526400000000    -0.0657791  
C137     C      0.955910000000     0.812310000000     0.024470000000    -0.0658445  
C138     C      0.971520000000     0.820520000000     0.987300000000     0.0226364  
C139     C      0.956040000000     0.828590000000     0.949900000000    -0.0656884  
C140     C      0.925800000000     0.828330000000     0.949650000000     0.0235739  
C141     C      0.910290000000     0.820370000000     0.986950000000    -0.105284   
C142     C      0.925680000000     0.812430000000     0.024380000000     0.0236475  
C143     C      0.003770000000     0.820600000000     0.987560000000     0.0226318  
C144     C      0.019180000000     0.828700000000     0.025000000000    -0.0656416  
C145     C      0.049420000000     0.828500000000     0.025360000000     0.0236238  
C146     C      0.065000000000     0.820590000000     0.988100000000    -0.105263   
C147     C      0.049680000000     0.812680000000     0.950580000000     0.023516   
C148     C      0.019450000000     0.812510000000     0.950390000000    -0.0658655  
C149     C      0.829310000000     0.018850000000     0.950380000000    -0.065669   
C150     C      0.821150000000     0.003460000000     0.987810000000     0.0226031  
C151     C      0.813080000000     0.019170000000     0.024960000000    -0.0657651  
C152     C      0.813320000000     0.049400000000     0.024760000000     0.0235856  
C153     C      0.821270000000     0.064690000000     0.987240000000    -0.105276   
C154     C      0.829180000000     0.049090000000     0.950010000000     0.0235837  
C155     C      0.820980000000     0.971210000000     0.988060000000     0.0226436  
C156     C      0.812760000000     0.955640000000     0.950860000000    -0.0658641  
C157     C      0.812820000000     0.925410000000     0.950910000000     0.0235251  
C158     C      0.820720000000     0.909990000000     0.988330000000    -0.105162   
C159     C      0.828670000000     0.925450000000     0.025670000000     0.0235611  
C160     C      0.828990000000     0.955700000000     0.025450000000    -0.0656141  
C161     C      0.129430000000     0.622710000000     0.475890000000    -0.066349   
C162     C      0.153990000000     0.638210000000     0.489260000000     0.0227478  
C163     C      0.178640000000     0.622930000000     0.502810000000    -0.0663642  
C164     C      0.178840000000     0.592700000000     0.502580000000     0.0238353  
C165     C      0.154200000000     0.577140000000     0.489490000000    -0.105467   
C166     C      0.129440000000     0.592470000000     0.476350000000     0.0238257  
C167     C      0.153930000000     0.670240000000     0.488900000000     0.0227492  
C168     C      0.144780000000     0.685390000000     0.451910000000    -0.0664141  
C169     C      0.145010000000     0.715620000000     0.451340000000     0.0237135  
C170     C      0.153940000000     0.731300000000     0.488030000000    -0.105435   
C171     C      0.162840000000     0.716090000000     0.525190000000     0.0237165  
C172     C      0.163060000000     0.685850000000     0.525470000000    -0.0663352  
C173     C      0.164610000000     0.289870000000     0.452120000000    -0.0663627  
C174     C      0.155270000000     0.305060000000     0.488960000000     0.0226894  
C175     C      0.145980000000     0.289490000000     0.525480000000    -0.0663305  
C176     C      0.146240000000     0.259250000000     0.525300000000     0.0236123  
C177     C      0.155350000000     0.244000000000     0.488310000000    -0.105382   
C178     C      0.164430000000     0.259630000000     0.451660000000     0.0236403  
C179     C      0.155180000000     0.337100000000     0.489270000000     0.0228101  
C180     C      0.179790000000     0.352600000000     0.476080000000    -0.0664587  
C181     C      0.179770000000     0.382840000000     0.476580000000     0.0238105  
C182     C      0.154970000000     0.398160000000     0.489580000000    -0.105388   
C183     C      0.130280000000     0.382600000000     0.502460000000     0.0238073  
C184     C      0.130480000000     0.352360000000     0.502650000000    -0.0664296  
C185     C      0.145230000000     0.685250000000     0.953090000000    -0.0664633  
C186     C      0.154300000000     0.670020000000     0.990050000000     0.0227081  
C187     C      0.163390000000     0.685550000000     0.026720000000    -0.0662569  
C188     C      0.163180000000     0.715800000000     0.026570000000     0.0238142  
C189     C      0.154350000000     0.731080000000     0.989450000000    -0.105517   
C190     C      0.145480000000     0.715480000000     0.952660000000     0.0237677  
C191     C      0.154310000000     0.637990000000     0.990280000000     0.0226623  
C192     C      0.129730000000     0.622560000000     0.976800000000    -0.0663581  
C193     C      0.129690000000     0.592330000000     0.977120000000     0.023818   
C194     C      0.154420000000     0.576930000000     0.990220000000    -0.105405   
C195     C      0.179080000000     0.592400000000     0.003440000000     0.0237976  
C196     C      0.178930000000     0.622640000000     0.003810000000    -0.0662668  
C197     C      0.163950000000     0.289530000000     0.950660000000    -0.0663093  
C198     C      0.154820000000     0.304850000000     0.987520000000     0.0226812  
C199     C      0.145740000000     0.289410000000     0.024270000000    -0.0663975  
C200     C      0.146030000000     0.259180000000     0.024330000000     0.023838   
C201     C      0.154940000000     0.243790000000     0.987360000000    -0.105529   
C202     C      0.163780000000     0.259280000000     0.950440000000     0.0237391  
C203     C      0.154760000000     0.336890000000     0.987690000000     0.0227493  
C204     C      0.179350000000     0.352360000000     0.974380000000    -0.0664061  
C205     C      0.179430000000     0.382600000000     0.975140000000     0.0237797  
C206     C      0.154730000000     0.397950000000     0.988520000000    -0.105424   
C207     C      0.130040000000     0.382410000000     0.001430000000     0.0238874  
C208     C      0.130150000000     0.352180000000     0.001360000000    -0.0663554  
C209     C      0.129660000000     0.495890000000     0.787020000000    -0.0658401  
C210     C      0.154580000000     0.487880000000     0.763710000000     0.0226565  
C211     C      0.179510000000     0.479860000000     0.786990000000    -0.0658187  
C212     C      0.179570000000     0.480030000000     0.832280000000     0.0236318  
C213     C      0.154600000000     0.487830000000     0.855440000000    -0.105293   
C214     C      0.129610000000     0.495670000000     0.832320000000     0.023575   
C215     C      0.154570000000     0.487860000000     0.715390000000     0.0226648  
C216     C      0.129690000000     0.479680000000     0.692120000000    -0.0658021  
C217     C      0.129630000000     0.479820000000     0.646820000000     0.0236014  
C218     C      0.154560000000     0.487770000000     0.623660000000    -0.105283   
C219     C      0.179490000000     0.495770000000     0.646780000000     0.0236005  
C220     C      0.179440000000     0.496010000000     0.692080000000    -0.0658396  
C221     C      0.179520000000     0.495290000000     0.192080000000    -0.065896   
C222     C      0.154630000000     0.487170000000     0.215390000000     0.0226662  
C223     C      0.129750000000     0.478990000000     0.192100000000    -0.0658471  
C224     C      0.129700000000     0.479140000000     0.146800000000     0.0235655  
C225     C      0.154640000000     0.487090000000     0.123650000000    -0.10524    
C226     C      0.179580000000     0.495050000000     0.146780000000     0.0236035  
C227     C      0.154620000000     0.487260000000     0.263710000000     0.0226559  
C228     C      0.179540000000     0.479310000000     0.287060000000    -0.065866   
C229     C      0.179590000000     0.479620000000     0.332360000000     0.0236158  
C230     C      0.154610000000     0.487490000000     0.355450000000    -0.105267   
C231     C      0.129620000000     0.495240000000     0.332260000000     0.0235685  
C232     C      0.129680000000     0.495320000000     0.286960000000    -0.0658473  
C233     C      0.353230000000     0.129750000000     0.472120000000    -0.0663655  
C234     C      0.337920000000     0.154430000000     0.485490000000     0.0227863  
C235     C      0.353380000000     0.179040000000     0.498730000000    -0.0664233  
C236     C      0.383610000000     0.179060000000     0.498300000000     0.0238476  
C237     C      0.398980000000     0.154290000000     0.485300000000    -0.105423   
C238     C      0.383460000000     0.129590000000     0.472360000000     0.023816   
C239     C      0.305880000000     0.154470000000     0.485720000000     0.0226631  
C240     C      0.290360000000     0.145190000000     0.449140000000    -0.0663199  
C241     C      0.260120000000     0.145440000000     0.449250000000     0.0235875  
C242     C      0.244820000000     0.154510000000     0.486220000000    -0.10532    
C243     C      0.260400000000     0.163570000000     0.522930000000     0.023581   
C244     C      0.290640000000     0.163780000000     0.522540000000    -0.0663219  
C245     C      0.623710000000     0.178320000000     0.471910000000    -0.0664065  
C246     C      0.639020000000     0.153680000000     0.485420000000     0.0227743  
C247     C      0.623570000000     0.129100000000     0.498830000000    -0.0663494  
C248     C      0.593340000000     0.129070000000     0.498450000000     0.0237952  
C249     C      0.577960000000     0.153820000000     0.485350000000    -0.105441   
C250     C      0.593470000000     0.178480000000     0.472220000000     0.0238158  
C251     C      0.671060000000     0.153660000000     0.485700000000     0.0227413  
C252     C      0.686620000000     0.162810000000     0.449090000000    -0.0663196  
C253     C      0.716860000000     0.162600000000     0.449290000000     0.0237825  
C254     C      0.732120000000     0.153720000000     0.486400000000    -0.105484   
C255     C      0.716490000000     0.144780000000     0.523140000000     0.0237284  
C256     C      0.686260000000     0.144520000000     0.522650000000    -0.0664411  
C257     C      0.352950000000     0.129450000000     0.973710000000    -0.0662965  
C258     C      0.337630000000     0.154050000000     0.987410000000     0.0225974  
C259     C      0.353090000000     0.178660000000     0.000680000000    -0.0660813  
C260     C      0.383330000000     0.178780000000     0.999870000000     0.023487   
C261     C      0.398690000000     0.154100000000     0.986470000000    -0.105213   
C262     C      0.383180000000     0.129380000000     0.973590000000     0.0236937  
C263     C      0.305600000000     0.154070000000     0.987630000000     0.0226855  
C264     C      0.290140000000     0.144980000000     0.950900000000    -0.066389   
C265     C      0.259910000000     0.145240000000     0.950880000000     0.023687   
C266     C      0.244540000000     0.154160000000     0.987870000000    -0.105409   
C267     C      0.260040000000     0.163010000000     0.024760000000     0.02377    
C268     C      0.290290000000     0.163200000000     0.024500000000    -0.0662297  
C269     C      0.686310000000     0.163060000000     0.948300000000    -0.066299   
C270     C      0.670760000000     0.153980000000     0.984970000000     0.0226339  
C271     C      0.685980000000     0.144940000000     0.021960000000    -0.0663572  
C272     C      0.716220000000     0.145210000000     0.022420000000     0.0237717  
C273     C      0.731820000000     0.154070000000     0.985630000000    -0.105462   
C274     C      0.716550000000     0.162870000000     0.948480000000     0.0237279  
C275     C      0.638730000000     0.153950000000     0.984700000000     0.0228248  
C276     C      0.623370000000     0.178540000000     0.971130000000    -0.0663989  
C277     C      0.593130000000     0.178650000000     0.971470000000     0.0238602  
C278     C      0.577670000000     0.153990000000     0.984700000000    -0.105472   
C279     C      0.593100000000     0.129280000000     0.997840000000     0.0237793  
C280     C      0.623330000000     0.129360000000     0.998180000000    -0.0664524  
C281     C      0.496020000000     0.179000000000     0.782840000000    -0.0658256  
C282     C      0.487940000000     0.154100000000     0.759530000000     0.0226375  
C283     C      0.479790000000     0.129210000000     0.782810000000    -0.06584    
C284     C      0.479930000000     0.129160000000     0.828110000000     0.0235822  
C285     C      0.487830000000     0.154110000000     0.851270000000    -0.10526    
C286     C      0.495770000000     0.179060000000     0.828140000000     0.0235691  
C287     C      0.488050000000     0.154090000000     0.711200000000     0.0227036  
C288     C      0.480070000000     0.179000000000     0.687850000000    -0.0659104  
C289     C      0.480390000000     0.179050000000     0.642550000000     0.0236365  
C290     C      0.488300000000     0.154080000000     0.619460000000    -0.105311   
C291     C      0.496080000000     0.129110000000     0.642660000000     0.0236373  
C292     C      0.496150000000     0.129170000000     0.687960000000    -0.0658748  
C293     C      0.496710000000     0.129130000000     0.187890000000    -0.0658934  
C294     C      0.488670000000     0.154040000000     0.211210000000     0.0226647  
C295     C      0.480600000000     0.178960000000     0.187930000000    -0.0658373  
C296     C      0.480770000000     0.179030000000     0.142640000000     0.0236372  
C297     C      0.488600000000     0.154060000000     0.119470000000    -0.105367   
C298     C      0.496480000000     0.129090000000     0.142590000000     0.0236702  
C299     C      0.488660000000     0.154030000000     0.259520000000     0.0226703  
C300     C      0.480510000000     0.129140000000     0.282800000000    -0.0658237  
C301     C      0.480660000000     0.129080000000     0.328100000000     0.0235574  
C302     C      0.488580000000     0.154030000000     0.351250000000    -0.105267   
C303     C      0.496540000000     0.178970000000     0.328130000000     0.0236281  
C304     C      0.496780000000     0.178910000000     0.282830000000    -0.0658601  
C305     C      0.796610000000     0.351830000000     0.498840000000    -0.0664114  
C306     C      0.821310000000     0.336430000000     0.485810000000     0.0227709  
C307     C      0.845950000000     0.351810000000     0.472430000000    -0.0663677  
C308     C      0.845970000000     0.382050000000     0.472430000000     0.0237967  
C309     C      0.821180000000     0.397500000000     0.485150000000    -0.105397   
C310     C      0.796460000000     0.382070000000     0.498180000000     0.0238153  
C311     C      0.821390000000     0.304400000000     0.486180000000     0.0226649  
C312     C      0.812020000000     0.289180000000     0.522990000000    -0.0663007  
C313     C      0.812310000000     0.258940000000     0.523480000000     0.0235808  
C314     C      0.821530000000     0.243330000000     0.486880000000    -0.105344   
C315     C      0.830690000000     0.258610000000     0.449930000000     0.0235965  
C316     C      0.830840000000     0.288850000000     0.449730000000    -0.0663248  
C317     C      0.845560000000     0.622200000000     0.497330000000    -0.0663774  
C318     C      0.820880000000     0.637550000000     0.484060000000     0.0227529  
C319     C      0.796260000000     0.622130000000     0.470710000000    -0.0663584  
C320     C      0.796220000000     0.591890000000     0.471060000000     0.0238114  
C321     C      0.820960000000     0.576490000000     0.484080000000    -0.105366   
C322     C      0.845690000000     0.591960000000     0.497000000000     0.023755   
C323     C      0.820770000000     0.669580000000     0.484420000000     0.0227386  
C324     C      0.829990000000     0.684770000000     0.521340000000    -0.0664326  
C325     C      0.829650000000     0.714990000000     0.521910000000     0.023724   
C326     C      0.820520000000     0.730640000000     0.485290000000    -0.105445   
C327     C      0.811540000000     0.715410000000     0.448220000000     0.0237669  
C328     C      0.811430000000     0.685160000000     0.447930000000    -0.066315   
C329     C      0.796600000000     0.352210000000     0.999230000000    -0.0664086  
C330     C      0.821250000000     0.336790000000     0.986040000000     0.0227772  
C331     C      0.845850000000     0.352140000000     0.972460000000    -0.0663396  
C332     C      0.845890000000     0.382380000000     0.972380000000     0.0237314  
C333     C      0.821140000000     0.397850000000     0.985210000000    -0.105246   
C334     C      0.796450000000     0.382440000000     0.998470000000     0.0236816  
C335     C      0.821290000000     0.304760000000     0.986320000000     0.022638   
C336     C      0.812090000000     0.289480000000     0.023180000000    -0.0662216  
C337     C      0.812330000000     0.259230000000     0.023520000000     0.0237539  
C338     C      0.821310000000     0.243700000000     0.986720000000    -0.10545    
C339     C      0.830300000000     0.259040000000     0.949750000000     0.0237294  
C340     C      0.830510000000     0.289270000000     0.949690000000    -0.0663942  
C341     C      0.811740000000     0.685520000000     0.948820000000    -0.0663321  
C342     C      0.820940000000     0.669930000000     0.985380000000     0.0226566  
C343     C      0.830080000000     0.685100000000     0.022350000000    -0.0663386  
C344     C      0.829800000000     0.715330000000     0.022910000000     0.0237537  
C345     C      0.820830000000     0.730980000000     0.986220000000    -0.105449   
C346     C      0.811910000000     0.715760000000     0.949100000000     0.0237693  
C347     C      0.821000000000     0.637890000000     0.984960000000     0.0228153  
C348     C      0.796400000000     0.622530000000     0.971390000000    -0.066397   
C349     C      0.796340000000     0.592290000000     0.971510000000     0.0237765  
C350     C      0.821050000000     0.576830000000     0.984520000000    -0.105286   
C351     C      0.845750000000     0.592250000000     0.997690000000     0.0237244  
C352     C      0.845630000000     0.622490000000     0.998250000000    -0.0664613  
C353     C      0.846010000000     0.479170000000     0.782040000000    -0.0659022  
C354     C      0.821090000000     0.487230000000     0.758750000000     0.0227058  
C355     C      0.796180000000     0.495290000000     0.782050000000    -0.0659255  
C356     C      0.796130000000     0.495090000000     0.827350000000     0.0236691  
C357     C      0.821090000000     0.487230000000     0.850490000000    -0.105302   
C358     C      0.846060000000     0.479360000000     0.827350000000     0.0236001  
C359     C      0.821090000000     0.487230000000     0.710430000000     0.0226057  
C360     C      0.845980000000     0.495340000000     0.687110000000    -0.0658211  
C361     C      0.846030000000     0.495130000000     0.641810000000     0.0235358  
C362     C      0.821070000000     0.487210000000     0.618690000000    -0.105172   
C363     C      0.796120000000     0.479310000000     0.641840000000     0.02353    
C364     C      0.796190000000     0.479120000000     0.687140000000    -0.0657878  
C365     C      0.796120000000     0.495060000000     0.282070000000    -0.0658618  
C366     C      0.821040000000     0.487040000000     0.258740000000     0.0226515  
C367     C      0.845940000000     0.478920000000     0.282010000000    -0.0658214  
C368     C      0.845990000000     0.479020000000     0.327300000000     0.0236431  
C369     C      0.821030000000     0.486860000000     0.350470000000    -0.105321   
C370     C      0.796070000000     0.494770000000     0.327370000000     0.0236567  
C371     C      0.821040000000     0.487160000000     0.210430000000     0.02267    
C372     C      0.796150000000     0.479110000000     0.187090000000    -0.0658061  
C373     C      0.796090000000     0.479410000000     0.141790000000     0.0235781  
C374     C      0.821050000000     0.487370000000     0.118700000000    -0.105292   
C375     C      0.845990000000     0.495240000000     0.141880000000     0.0236678  
C376     C      0.845940000000     0.495330000000     0.187180000000    -0.0658728  
C377     C      0.289100000000     0.830030000000     0.524510000000    -0.0663046  
C378     C      0.304660000000     0.820580000000     0.488070000000     0.0226374  
C379     C      0.289440000000     0.811170000000     0.451270000000    -0.0662859  
C380     C      0.259210000000     0.811440000000     0.450780000000     0.0235974  
C381     C      0.243590000000     0.820670000000     0.487370000000    -0.105343   
C382     C      0.258860000000     0.829860000000     0.524300000000     0.0236079  
C383     C      0.336690000000     0.820540000000     0.488430000000     0.0227659  
C384     C      0.352040000000     0.845200000000     0.501780000000    -0.0663891  
C385     C      0.382270000000     0.845270000000     0.501760000000     0.0238238  
C386     C      0.397760000000     0.820500000000     0.489060000000    -0.105369   
C387     C      0.382360000000     0.795740000000     0.476060000000     0.0237188  
C388     C      0.352120000000     0.795850000000     0.475410000000    -0.0663522  
C389     C      0.622430000000     0.795920000000     0.503450000000    -0.0663947  
C390     C      0.637810000000     0.820560000000     0.490090000000     0.0227746  
C391     C      0.622420000000     0.845210000000     0.476820000000    -0.0663853  
C392     C      0.592180000000     0.845300000000     0.477160000000     0.0237804  
C393     C      0.576750000000     0.820550000000     0.490090000000    -0.105371   
C394     C      0.592190000000     0.795830000000     0.503100000000     0.0238271  
C395     C      0.669840000000     0.820490000000     0.489740000000     0.0227395  
C396     C      0.685430000000     0.811170000000     0.526230000000    -0.0663567  
C397     C      0.715680000000     0.811310000000     0.525930000000     0.0237509  
C398     C      0.730900000000     0.820310000000     0.488860000000    -0.105384   
C399     C      0.715240000000     0.829420000000     0.452250000000     0.0237436  
C400     C      0.685020000000     0.829730000000     0.452820000000    -0.0664323  
C401     C      0.289630000000     0.829740000000     0.025090000000    -0.06643    
C402     C      0.305060000000     0.820550000000     0.988390000000     0.0226878  
C403     C      0.289730000000     0.811350000000     0.951580000000    -0.0662992  
C404     C      0.259490000000     0.811570000000     0.951350000000     0.0237517  
C405     C      0.244000000000     0.820540000000     0.988210000000    -0.105562   
C406     C      0.259400000000     0.829510000000     0.025140000000     0.0238467  
C407     C      0.337100000000     0.820550000000     0.988540000000     0.0227481  
C408     C      0.352440000000     0.845170000000     0.002070000000    -0.0664082  
C409     C      0.382680000000     0.845230000000     0.002010000000     0.023972   
C410     C      0.398160000000     0.820510000000     0.989120000000    -0.10548    
C411     C      0.382750000000     0.795800000000     0.975910000000     0.0238057  
C412     C      0.352520000000     0.795910000000     0.975280000000    -0.0664178  
C413     C      0.622850000000     0.795970000000     0.002970000000    -0.0663342  
C414     C      0.638200000000     0.820590000000     0.989480000000     0.0227099  
C415     C      0.622780000000     0.845220000000     0.976170000000    -0.0663666  
C416     C      0.592550000000     0.845300000000     0.976630000000     0.0238342  
C417     C      0.577140000000     0.820580000000     0.989730000000    -0.105431   
C418     C      0.592610000000     0.795870000000     0.002750000000     0.0238444  
C419     C      0.670230000000     0.820570000000     0.989190000000     0.0226989  
C420     C      0.685770000000     0.811360000000     0.025780000000    -0.0662826  
C421     C      0.716020000000     0.811570000000     0.025610000000     0.023817   
C422     C      0.731290000000     0.820520000000     0.988560000000    -0.105445   
C423     C      0.715690000000     0.829510000000     0.951830000000     0.0236788  
C424     C      0.685450000000     0.829760000000     0.952280000000    -0.0664294  
C425     C      0.495580000000     0.845390000000     0.787020000000    -0.0658352  
C426     C      0.487440000000     0.820490000000     0.763770000000     0.022665   
C427     C      0.479420000000     0.795580000000     0.787110000000    -0.0658561  
C428     C      0.479720000000     0.795530000000     0.832410000000     0.02362    
C429     C      0.487660000000     0.820490000000     0.855500000000    -0.10529    
C430     C      0.495490000000     0.845450000000     0.832320000000     0.0236027  
C431     C      0.487320000000     0.820480000000     0.715450000000     0.022667   
C432     C      0.479160000000     0.845380000000     0.692190000000    -0.0658406  
C433     C      0.479260000000     0.845430000000     0.646890000000     0.0236264  
C434     C      0.487130000000     0.820480000000     0.623720000000    -0.105292   
C435     C      0.495070000000     0.795520000000     0.646820000000     0.0236016  
C436     C      0.495360000000     0.795580000000     0.692120000000    -0.065861   
C437     C      0.495620000000     0.795640000000     0.192150000000    -0.0657692  
C438     C      0.487520000000     0.820540000000     0.215450000000     0.0226184  
C439     C      0.479440000000     0.845440000000     0.192150000000    -0.0657836  
C440     C      0.479640000000     0.845500000000     0.146850000000     0.0235428  
C441     C      0.487540000000     0.820540000000     0.123710000000    -0.105203   
C442     C      0.495430000000     0.795580000000     0.146850000000     0.0235214  
C443     C      0.487510000000     0.820540000000     0.263770000000     0.0226576  
C444     C      0.479430000000     0.795630000000     0.287050000000    -0.0658601  
C445     C      0.479600000000     0.795570000000     0.332350000000     0.0236341  
C446     C      0.487470000000     0.820520000000     0.355510000000    -0.105277   
C447     C      0.495370000000     0.845490000000     0.332390000000     0.0235532  
C448     C      0.495580000000     0.845440000000     0.287090000000    -0.0657931  
Cu1      Cu     0.487630000000     0.847320000000     0.989590000000     0.839753   
Cu2      Cu     0.487660000000     0.793730000000     0.989610000000     0.839558   
Cu3      Cu     0.487240000000     0.847310000000     0.489630000000     0.839758   
Cu4      Cu     0.487260000000     0.793710000000     0.489610000000     0.839747   
Cu5      Cu     0.794280000000     0.487330000000     0.984590000000     0.839665   
Cu6      Cu     0.847880000000     0.487350000000     0.984610000000     0.839671   
Cu7      Cu     0.794260000000     0.486960000000     0.484580000000     0.83975    
Cu8      Cu     0.847860000000     0.487030000000     0.484570000000     0.839762   
Cu9      Cu     0.488200000000     0.180870000000     0.985390000000     0.839482   
Cu10     Cu     0.488170000000     0.127270000000     0.985370000000     0.839865   
Cu11     Cu     0.488540000000     0.180850000000     0.485340000000     0.83975    
Cu12     Cu     0.488400000000     0.127250000000     0.485360000000     0.839735   
Cu13     Cu     0.127800000000     0.487390000000     0.989550000000     0.839803   
Cu14     Cu     0.181400000000     0.487480000000     0.989530000000     0.839509   
Cu15     Cu     0.127780000000     0.487540000000     0.489550000000     0.839732   
Cu16     Cu     0.181380000000     0.487760000000     0.489570000000     0.839792   
Cu17     Cu     0.821030000000     0.820170000000     0.027670000000     0.839892   
Cu18     Cu     0.820530000000     0.820770000000     0.947370000000     0.839631   
Cu19     Cu     0.820810000000     0.819700000000     0.527210000000     0.839771   
Cu20     Cu     0.819960000000     0.820550000000     0.446930000000     0.839655   
Cu21     Cu     0.821620000000     0.154240000000     0.946740000000     0.839855   
Cu22     Cu     0.821000000000     0.154170000000     0.027040000000     0.839472   
Cu23     Cu     0.821940000000     0.153670000000     0.447670000000     0.840217   
Cu24     Cu     0.821260000000     0.154010000000     0.527960000000     0.838856   
Cu25     Cu     0.154920000000     0.154440000000     0.027790000000     0.839525   
Cu26     Cu     0.155170000000     0.154160000000     0.947490000000     0.839693   
Cu27     Cu     0.155520000000     0.154280000000     0.527280000000     0.839689   
Cu28     Cu     0.155140000000     0.154740000000     0.447010000000     0.839457   
Cu29     Cu     0.154430000000     0.820280000000     0.948120000000     0.839611   
Cu30     Cu     0.154590000000     0.820860000000     0.028420000000     0.839805   
Cu31     Cu     0.154280000000     0.820400000000     0.446260000000     0.838749   
Cu32     Cu     0.153920000000     0.821160000000     0.526550000000     0.840511   
H1       H      0.139580000000     0.967250000000     0.551430000000     0.0464458  
H2       H      0.139840000000     0.914660000000     0.551730000000     0.0349343  
H3       H      0.168430000000     0.914330000000     0.418410000000     0.0351182  
H4       H      0.169390000000     0.967020000000     0.418570000000     0.0464134  
H5       H      0.170370000000     0.007780000000     0.551440000000     0.0464186  
H6       H      0.170030000000     0.060400000000     0.552250000000     0.0351293  
H7       H      0.140550000000     0.061200000000     0.419370000000     0.0351688  
H8       H      0.139680000000     0.008540000000     0.419040000000     0.0465447  
H9       H      0.169890000000     0.008030000000     0.921220000000     0.0463718  
H10      H      0.169370000000     0.060660000000     0.921180000000     0.0347259  
H11      H      0.140660000000     0.060550000000     0.054430000000     0.0350482  
H12      H      0.139880000000     0.007900000000     0.054000000000     0.0465056  
H13      H      0.169840000000     0.966860000000     0.053870000000     0.0463885  
H14      H      0.169120000000     0.914250000000     0.054070000000     0.0347754  
H15      H      0.140500000000     0.914260000000     0.920780000000     0.0349875  
H16      H      0.139920000000     0.966940000000     0.921040000000     0.0464778  
H17      H      0.967890000000     0.168850000000     0.555470000000     0.0464545  
H18      H      0.915200000000     0.168010000000     0.555660000000     0.0351375  
H19      H      0.915430000000     0.139530000000     0.422300000000     0.0349487  
H20      H      0.968020000000     0.139150000000     0.422560000000     0.0464423  
H21      H      0.009290000000     0.139000000000     0.554960000000     0.0465409  
H22      H      0.061950000000     0.139750000000     0.554690000000     0.0351784  
H23      H      0.061290000000     0.169340000000     0.421870000000     0.0351378  
H24      H      0.008670000000     0.169810000000     0.422620000000     0.0464028  
H25      H      0.967640000000     0.139490000000     0.054280000000     0.0464602  
H26      H      0.914960000000     0.140160000000     0.054500000000     0.0349881  
H27      H      0.915040000000     0.168690000000     0.921170000000     0.0347667  
H28      H      0.967640000000     0.169320000000     0.921410000000     0.0464111  
H29      H      0.008620000000     0.139290000000     0.921330000000     0.0465241  
H30      H      0.061270000000     0.139970000000     0.920910000000     0.0350438  
H31      H      0.061430000000     0.168750000000     0.054120000000     0.034725   
H32      H      0.008800000000     0.169360000000     0.054070000000     0.0463918  
H33      H      0.966940000000     0.804850000000     0.551280000000     0.046377   
H34      H      0.914350000000     0.805260000000     0.551840000000     0.0347841  
H35      H      0.913800000000     0.834740000000     0.418970000000     0.035055   
H36      H      0.966490000000     0.835610000000     0.418900000000     0.0465392  
H37      H      0.007970000000     0.806040000000     0.418560000000     0.046413   
H38      H      0.060640000000     0.806860000000     0.418640000000     0.0347851  
H39      H      0.060180000000     0.834900000000     0.552210000000     0.0348428  
H40      H      0.007560000000     0.835350000000     0.551680000000     0.04645    
H41      H      0.836140000000     0.966190000000     0.555240000000     0.0465436  
H42      H      0.835160000000     0.913510000000     0.555160000000     0.0350375  
H43      H      0.805620000000     0.914120000000     0.422320000000     0.0347582  
H44      H      0.805330000000     0.966720000000     0.422890000000     0.046395   
H45      H      0.835900000000     0.007280000000     0.422470000000     0.04645    
H46      H      0.835560000000     0.059900000000     0.421960000000     0.0348462  
H47      H      0.807600000000     0.060390000000     0.555560000000     0.0347824  
H48      H      0.806670000000     0.007730000000     0.555620000000     0.0464174  
H49      H      0.967250000000     0.835530000000     0.920890000000     0.0464793  
H50      H      0.914570000000     0.834780000000     0.920380000000     0.0350143  
H51      H      0.914390000000     0.805930000000     0.053560000000     0.0348241  
H52      H      0.966990000000     0.805410000000     0.053600000000     0.0464278  
H53      H      0.007930000000     0.835580000000     0.054000000000     0.0465217  
H54      H      0.060590000000     0.834930000000     0.054690000000     0.0350777  
H55      H      0.061040000000     0.806250000000     0.921430000000     0.0347948  
H56      H      0.008420000000     0.805620000000     0.921210000000     0.0463867  
H57      H      0.806150000000     0.008150000000     0.054140000000     0.046358   
H58      H      0.806880000000     0.060780000000     0.053900000000     0.0347782  
H59      H      0.835650000000     0.060230000000     0.920680000000     0.0350799  
H60      H      0.836190000000     0.007580000000     0.921390000000     0.0465042  
H61      H      0.805900000000     0.966750000000     0.921730000000     0.0464132  
H62      H      0.806330000000     0.914150000000     0.921700000000     0.0348395  
H63      H      0.835080000000     0.914190000000     0.054930000000     0.0350229  
H64      H      0.835930000000     0.966870000000     0.054490000000     0.0464791  
H65      H      0.197920000000     0.634400000000     0.513010000000     0.0472789  
H66      H      0.198220000000     0.581510000000     0.513030000000     0.0346731  
H67      H      0.110150000000     0.581120000000     0.465960000000     0.0347057  
H68      H      0.110080000000     0.634000000000     0.465550000000     0.0473418  
H69      H      0.137810000000     0.673830000000     0.423200000000     0.0473223  
H70      H      0.137950000000     0.726700000000     0.422270000000     0.0347014  
H71      H      0.169920000000     0.727550000000     0.553920000000     0.0350051  
H72      H      0.170040000000     0.674650000000     0.554490000000     0.0474035  
H73      H      0.138840000000     0.300720000000     0.554390000000     0.0473538  
H74      H      0.139040000000     0.247830000000     0.554000000000     0.0349919  
H75      H      0.171660000000     0.248510000000     0.422700000000     0.03502    
H76      H      0.171710000000     0.301390000000     0.423450000000     0.0473637  
H77      H      0.199160000000     0.341310000000     0.465880000000     0.0473055  
H78      H      0.199090000000     0.394200000000     0.466340000000     0.0346996  
H79      H      0.110870000000     0.393780000000     0.512790000000     0.0347364  
H80      H      0.111180000000     0.340890000000     0.512700000000     0.0474017  
H81      H      0.170330000000     0.674280000000     0.055710000000     0.0473918  
H82      H      0.170230000000     0.727190000000     0.055380000000     0.0349834  
H83      H      0.138460000000     0.726620000000     0.923620000000     0.0346468  
H84      H      0.138300000000     0.673750000000     0.924310000000     0.0473347  
H85      H      0.110420000000     0.633920000000     0.966480000000     0.0473483  
H86      H      0.110390000000     0.581030000000     0.966630000000     0.0347155  
H87      H      0.198420000000     0.581160000000     0.013860000000     0.0346871  
H88      H      0.198210000000     0.634060000000     0.014100000000     0.0472947  
H89      H      0.138780000000     0.300740000000     0.053190000000     0.0473057  
H90      H      0.139000000000     0.247880000000     0.053230000000     0.0346639  
H91      H      0.170850000000     0.248050000000     0.921510000000     0.0349695  
H92      H      0.170890000000     0.300970000000     0.921830000000     0.0474161  
H93      H      0.198660000000     0.341050000000     0.963960000000     0.0473079  
H94      H      0.198750000000     0.393940000000     0.964850000000     0.0346687  
H95      H      0.110710000000     0.393610000000     0.012030000000     0.0347292  
H96      H      0.110860000000     0.340730000000     0.011530000000     0.0473747  
H97      H      0.198950000000     0.473030000000     0.770280000000     0.046376   
H98      H      0.199110000000     0.473640000000     0.849140000000     0.0347548  
H99      H      0.110080000000     0.502030000000     0.849220000000     0.0347469  
H100     H      0.110220000000     0.502720000000     0.770340000000     0.0464031  
H101     H      0.110290000000     0.472740000000     0.708830000000     0.0463836  
H102     H      0.110130000000     0.473310000000     0.629960000000     0.0347632  
H103     H      0.198990000000     0.502250000000     0.629890000000     0.0347533  
H104     H      0.198840000000     0.502980000000     0.708750000000     0.0463854  
H105     H      0.110350000000     0.472080000000     0.208800000000     0.0464085  
H106     H      0.110200000000     0.472660000000     0.129930000000     0.0347423  
H107     H      0.199080000000     0.501520000000     0.129900000000     0.0347654  
H108     H      0.198910000000     0.502240000000     0.208750000000     0.046434   
H109     H      0.198980000000     0.472450000000     0.270410000000     0.0463969  
H110     H      0.199130000000     0.473290000000     0.349270000000     0.034731   
H111     H      0.110080000000     0.501640000000     0.349100000000     0.0347439  
H112     H      0.110250000000     0.502110000000     0.270230000000     0.0464172  
H113     H      0.342050000000     0.198400000000     0.508930000000     0.047274   
H114     H      0.394940000000     0.198400000000     0.508570000000     0.0346914  
H115     H      0.394680000000     0.110200000000     0.462040000000     0.0347327  
H116     H      0.341790000000     0.110430000000     0.462020000000     0.0473582  
H117     H      0.301630000000     0.138080000000     0.420250000000     0.0473568  
H118     H      0.248740000000     0.138240000000     0.420510000000     0.0349865  
H119     H      0.249250000000     0.170770000000     0.551860000000     0.0350407  
H120     H      0.302130000000     0.170860000000     0.551250000000     0.0473524  
H121     H      0.634910000000     0.109770000000     0.509140000000     0.0473427  
H122     H      0.582020000000     0.109770000000     0.508860000000     0.0347216  
H123     H      0.582250000000     0.197840000000     0.461800000000     0.0346759  
H124     H      0.635140000000     0.197610000000     0.461690000000     0.0473057  
H125     H      0.675370000000     0.169790000000     0.420100000000     0.0473855  
H126     H      0.728280000000     0.169700000000     0.420530000000     0.0349907  
H127     H      0.727610000000     0.137720000000     0.552180000000     0.0347108  
H128     H      0.674740000000     0.137550000000     0.551390000000     0.0473332  
H129     H      0.341760000000     0.197960000000     0.011120000000     0.0472451  
H130     H      0.394650000000     0.198110000000     0.010130000000     0.0347905  
H131     H      0.394390000000     0.110060000000     0.962980000000     0.034748   
H132     H      0.341510000000     0.110150000000     0.963570000000     0.0473374  
H133     H      0.301460000000     0.138010000000     0.921970000000     0.0472813  
H134     H      0.248600000000     0.138210000000     0.921990000000     0.0346877  
H135     H      0.248820000000     0.170080000000     0.053700000000     0.0349787  
H136     H      0.301740000000     0.170150000000     0.053320000000     0.0474066  
H137     H      0.674480000000     0.138020000000     0.050740000000     0.0473343  
H138     H      0.727350000000     0.138220000000     0.051490000000     0.0346567  
H139     H      0.727960000000     0.169890000000     0.919680000000     0.034985   
H140     H      0.675050000000     0.169960000000     0.919290000000     0.0474002  
H141     H      0.634770000000     0.197840000000     0.960830000000     0.0472831  
H142     H      0.581860000000     0.197990000000     0.961030000000     0.0346363  
H143     H      0.581820000000     0.109970000000     0.008330000000     0.0347755  
H144     H      0.634700000000     0.110060000000     0.008540000000     0.0474149  
H145     H      0.472910000000     0.109800000000     0.766100000000     0.0463983  
H146     H      0.473470000000     0.109650000000     0.844980000000     0.0347393  
H147     H      0.502210000000     0.198570000000     0.845030000000     0.0347636  
H148     H      0.502950000000     0.198410000000     0.766170000000     0.0463859  
H149     H      0.473180000000     0.198430000000     0.704490000000     0.0464119  
H150     H      0.474040000000     0.198580000000     0.625630000000     0.0347311  
H151     H      0.502520000000     0.109570000000     0.625820000000     0.034724   
H152     H      0.502960000000     0.109740000000     0.704690000000     0.0464082  
H153     H      0.473760000000     0.198390000000     0.204640000000     0.0463958  
H154     H      0.474350000000     0.198560000000     0.125780000000     0.0347637  
H155     H      0.502860000000     0.109560000000     0.125690000000     0.034729   
H156     H      0.503570000000     0.109700000000     0.204560000000     0.046426   
H157     H      0.473600000000     0.109740000000     0.266090000000     0.0464141  
H158     H      0.474180000000     0.109580000000     0.344960000000     0.0347687  
H159     H      0.503000000000     0.198480000000     0.345020000000     0.0347404  
H160     H      0.503710000000     0.198320000000     0.266160000000     0.0463993  
H161     H      0.865330000000     0.340420000000     0.462490000000     0.0473619  
H162     H      0.865330000000     0.393310000000     0.462100000000     0.0347543  
H163     H      0.777050000000     0.393340000000     0.508290000000     0.0347009  
H164     H      0.777280000000     0.340460000000     0.509040000000     0.0472832  
H165     H      0.804810000000     0.300690000000     0.551610000000     0.0473416  
H166     H      0.805050000000     0.247800000000     0.552390000000     0.0350234  
H167     H      0.837990000000     0.247220000000     0.421270000000     0.0350018  
H168     H      0.837990000000     0.300100000000     0.420850000000     0.0473546  
H169     H      0.776900000000     0.633490000000     0.460590000000     0.0472834  
H170     H      0.776870000000     0.580590000000     0.460780000000     0.0346815  
H171     H      0.865060000000     0.580730000000     0.507320000000     0.03475    
H172     H      0.864870000000     0.633600000000     0.507520000000     0.0473629  
H173     H      0.837110000000     0.673240000000     0.549990000000     0.0473206  
H174     H      0.836790000000     0.726090000000     0.550920000000     0.0347144  
H175     H      0.804310000000     0.726840000000     0.419550000000     0.0349723  
H176     H      0.804380000000     0.673930000000     0.418970000000     0.0473898  
H177     H      0.865190000000     0.340730000000     0.962390000000     0.0473369  
H178     H      0.865220000000     0.393620000000     0.961880000000     0.034747   
H179     H      0.777080000000     0.393740000000     0.008680000000     0.0347698  
H180     H      0.777290000000     0.340850000000     0.009570000000     0.0473351  
H181     H      0.805040000000     0.300940000000     0.051930000000     0.0474134  
H182     H      0.805200000000     0.248040000000     0.052450000000     0.0350061  
H183     H      0.837440000000     0.247700000000     0.920940000000     0.0346684  
H184     H      0.837530000000     0.300570000000     0.920770000000     0.047273   
H185     H      0.837090000000     0.673550000000     0.051050000000     0.0473054  
H186     H      0.836880000000     0.726430000000     0.051960000000     0.0346607  
H187     H      0.804800000000     0.727200000000     0.920370000000     0.0350141  
H188     H      0.804760000000     0.674300000000     0.919820000000     0.0474072  
H189     H      0.777070000000     0.633930000000     0.961250000000     0.0472869  
H190     H      0.777000000000     0.581040000000     0.961060000000     0.0346722  
H191     H      0.865100000000     0.580970000000     0.008030000000     0.0348047  
H192     H      0.864930000000     0.633850000000     0.008600000000     0.0474307  
H193     H      0.776760000000     0.502150000000     0.765360000000     0.0464283  
H194     H      0.776600000000     0.501500000000     0.844220000000     0.0347381  
H195     H      0.865590000000     0.472960000000     0.844220000000     0.0347397  
H196     H      0.865430000000     0.472320000000     0.765350000000     0.0464328  
H197     H      0.865390000000     0.502240000000     0.703790000000     0.0464041  
H198     H      0.865540000000     0.501570000000     0.624920000000     0.0347533  
H199     H      0.776610000000     0.472850000000     0.624970000000     0.0347724  
H200     H      0.776780000000     0.472220000000     0.703840000000     0.0463746  
H201     H      0.865370000000     0.472090000000     0.265280000000     0.046393   
H202     H      0.865520000000     0.472590000000     0.344160000000     0.034737   
H203     H      0.776540000000     0.501160000000     0.344270000000     0.0347457  
H204     H      0.776700000000     0.501970000000     0.265410000000     0.0464045  
H205     H      0.776730000000     0.472170000000     0.203740000000     0.0463788  
H206     H      0.776580000000     0.472990000000     0.124880000000     0.0347672  
H207     H      0.865510000000     0.501720000000     0.125030000000     0.0347362  
H208     H      0.865350000000     0.502190000000     0.203910000000     0.0464207  
H209     H      0.300960000000     0.803950000000     0.422660000000     0.0473307  
H210     H      0.248070000000     0.804150000000     0.421880000000     0.0350239  
H211     H      0.247470000000     0.837180000000     0.552950000000     0.0349996  
H212     H      0.300350000000     0.837210000000     0.553380000000     0.0473378  
H213     H      0.340630000000     0.864570000000     0.511710000000     0.0473659  
H214     H      0.393510000000     0.864650000000     0.512070000000     0.0347525  
H215     H      0.393660000000     0.776350000000     0.465970000000     0.0347276  
H216     H      0.340770000000     0.776500000000     0.465230000000     0.04726    
H217     H      0.633790000000     0.864540000000     0.466630000000     0.0473582  
H218     H      0.580920000000     0.864660000000     0.466840000000     0.0347366  
H219     H      0.580920000000     0.776460000000     0.513380000000     0.0346822  
H220     H      0.633820000000     0.776580000000     0.513560000000     0.0473025  
H221     H      0.674210000000     0.804110000000     0.555180000000     0.0474167  
H222     H      0.727120000000     0.804090000000     0.554600000000     0.0349801  
H223     H      0.726340000000     0.836570000000     0.423230000000     0.0347044  
H224     H      0.673480000000     0.836840000000     0.424170000000     0.0473168  
H225     H      0.301160000000     0.804320000000     0.922780000000     0.0473973  
H226     H      0.248250000000     0.804450000000     0.922450000000     0.0349949  
H227     H      0.248100000000     0.836630000000     0.053990000000     0.0346547  
H228     H      0.300970000000     0.836760000000     0.053960000000     0.0473198  
H229     H      0.341030000000     0.864490000000     0.012190000000     0.0473974  
H230     H      0.393910000000     0.864580000000     0.012480000000     0.034713   
H231     H      0.394050000000     0.776450000000     0.965640000000     0.0346766  
H232     H      0.341160000000     0.776600000000     0.964970000000     0.0472991  
H233     H      0.634140000000     0.864540000000     0.965880000000     0.0473426  
H234     H      0.581260000000     0.864640000000     0.966280000000     0.0347188  
H235     H      0.581360000000     0.776520000000     0.013160000000     0.0346902  
H236     H      0.634250000000     0.776650000000     0.013130000000     0.0473087  
H237     H      0.674520000000     0.804350000000     0.054740000000     0.0474075  
H238     H      0.727410000000     0.804440000000     0.054370000000     0.0350065  
H239     H      0.726820000000     0.836620000000     0.922830000000     0.034664   
H240     H      0.673950000000     0.836790000000     0.923560000000     0.0473241  
H241     H      0.472500000000     0.776160000000     0.770460000000     0.0464     
H242     H      0.473330000000     0.776010000000     0.849320000000     0.0347487  
H243     H      0.501950000000     0.864970000000     0.849160000000     0.0347475  
H244     H      0.502410000000     0.864810000000     0.770280000000     0.0464032  
H245     H      0.472310000000     0.864800000000     0.708910000000     0.0464068  
H246     H      0.472800000000     0.864950000000     0.630040000000     0.0347413  
H247     H      0.501490000000     0.776010000000     0.629920000000     0.0347618  
H248     H      0.502290000000     0.776170000000     0.708780000000     0.0464082  
H249     H      0.472550000000     0.864860000000     0.208840000000     0.0463795  
H250     H      0.473210000000     0.865020000000     0.129960000000     0.0347672  
H251     H      0.501860000000     0.776070000000     0.129980000000     0.0347901  
H252     H      0.502500000000     0.776220000000     0.208850000000     0.0463729  
H253     H      0.472560000000     0.776210000000     0.270350000000     0.0463969  
H254     H      0.473170000000     0.776040000000     0.349220000000     0.0347468  
H255     H      0.501780000000     0.865010000000     0.349280000000     0.0347468  
H256     H      0.502460000000     0.864870000000     0.270410000000     0.0463758  
O1       O      0.531490000000     0.844720000000     0.989460000000    -0.386104   
O2       O      0.443780000000     0.844690000000     0.989690000000    -0.38605    
O3       O      0.487490000000     0.844710000000     0.055310000000    -0.386075   
O4       O      0.487770000000     0.844690000000     0.923870000000    -0.386121   
O5       O      0.487650000000     0.796340000000     0.923900000000    -0.386178   
O6       O      0.487650000000     0.796360000000     0.055330000000    -0.386028   
O7       O      0.443790000000     0.796330000000     0.989230000000    -0.385994   
O8       O      0.531520000000     0.796370000000     0.989960000000    -0.386119   
O9       O      0.443380000000     0.844670000000     0.489640000000    -0.386187   
O10      O      0.531100000000     0.844700000000     0.489620000000    -0.386087   
O11      O      0.487450000000     0.844690000000     0.423910000000    -0.386132   
O12      O      0.487050000000     0.844670000000     0.555350000000    -0.386139   
O13      O      0.487210000000     0.796320000000     0.555320000000    -0.386209   
O14      O      0.487320000000     0.796340000000     0.423890000000    -0.386094   
O15      O      0.531130000000     0.796350000000     0.490070000000    -0.386019   
O16      O      0.443400000000     0.796320000000     0.489160000000    -0.386189   
O17      O      0.796880000000     0.531190000000     0.984230000000    -0.386104   
O18      O      0.796920000000     0.443460000000     0.984990000000    -0.385984   
O19      O      0.796890000000     0.487330000000     0.050300000000    -0.386153   
O20      O      0.796910000000     0.487310000000     0.918870000000    -0.386091   
O21      O      0.845260000000     0.487200000000     0.918890000000    -0.386128   
O22      O      0.845240000000     0.487500000000     0.050330000000    -0.386085   
O23      O      0.845280000000     0.443490000000     0.984530000000    -0.38613    
O24      O      0.845240000000     0.531210000000     0.984730000000    -0.386021   
O25      O      0.796940000000     0.443100000000     0.485040000000    -0.386162   
O26      O      0.796830000000     0.530830000000     0.484120000000    -0.386045   
O27      O      0.796870000000     0.486910000000     0.418870000000    -0.386188   
O28      O      0.796890000000     0.487030000000     0.550300000000    -0.386095   
O29      O      0.845240000000     0.487230000000     0.550290000000    -0.386159   
O30      O      0.845220000000     0.486820000000     0.418850000000    -0.386093   
O31      O      0.845180000000     0.530880000000     0.484570000000    -0.386179   
O32      O      0.845290000000     0.443160000000     0.484560000000    -0.386099   
O33      O      0.532070000000     0.178210000000     0.984750000000    -0.386051   
O34      O      0.444330000000     0.178270000000     0.986060000000    -0.386025   
O35      O      0.488390000000     0.178240000000     0.051100000000    -0.386095   
O36      O      0.488020000000     0.178260000000     0.919670000000    -0.386121   
O37      O      0.487850000000     0.129910000000     0.919640000000    -0.386075   
O38      O      0.488490000000     0.129890000000     0.051080000000    -0.386164   
O39      O      0.444310000000     0.129920000000     0.985540000000    -0.386151   
O40      O      0.532020000000     0.129860000000     0.985220000000    -0.386172   
O41      O      0.444670000000     0.178340000000     0.485530000000    -0.386184   
O42      O      0.532400000000     0.178110000000     0.485140000000    -0.386071   
O43      O      0.488640000000     0.178210000000     0.419630000000    -0.386158   
O44      O      0.488420000000     0.178240000000     0.551060000000    -0.386133   
O45      O      0.488430000000     0.129890000000     0.551080000000    -0.386104   
O46      O      0.488380000000     0.129860000000     0.419650000000    -0.386181   
O47      O      0.532270000000     0.129760000000     0.485640000000    -0.386072   
O48      O      0.444540000000     0.129990000000     0.485070000000    -0.386167   
O49      O      0.130350000000     0.531250000000     0.989680000000    -0.386187   
O50      O      0.130500000000     0.443540000000     0.989390000000    -0.386097   
O51      O      0.130440000000     0.487090000000     0.055270000000    -0.386044   
O52      O      0.130420000000     0.487700000000     0.923830000000    -0.38608    
O53      O      0.178770000000     0.487660000000     0.923820000000    -0.386229   
O54      O      0.178790000000     0.487310000000     0.055250000000    -0.386053   
O55      O      0.178860000000     0.443610000000     0.988880000000    -0.385933   
O56      O      0.178700000000     0.531350000000     0.990160000000    -0.386005   
O57      O      0.130590000000     0.443690000000     0.489850000000    -0.386077   
O58      O      0.130220000000     0.531410000000     0.489260000000    -0.386093   
O59      O      0.130420000000     0.487570000000     0.423830000000    -0.3861     
O60      O      0.130400000000     0.487520000000     0.555270000000    -0.38616    
O61      O      0.178750000000     0.487870000000     0.555280000000    -0.386163   
O62      O      0.178770000000     0.487640000000     0.423850000000    -0.386132   
O63      O      0.178570000000     0.531620000000     0.489760000000    -0.386054   
O64      O      0.178940000000     0.443890000000     0.489390000000    -0.386259   
O65      O      0.821180000000     0.776360000000     0.023120000000    -0.38642    
O66      O      0.821070000000     0.864140000000     0.024260000000    -0.385079   
O67      O      0.777130000000     0.820040000000     0.024230000000    -0.385827   
O68      O      0.864790000000     0.820130000000     0.023340000000    -0.387059   
O69      O      0.864490000000     0.820790000000     0.950910000000    -0.385167   
O70      O      0.776710000000     0.820920000000     0.951800000000    -0.386449   
O71      O      0.820500000000     0.864530000000     0.951830000000    -0.387133   
O72      O      0.820380000000     0.776860000000     0.950690000000    -0.385824   
O73      O      0.820930000000     0.775920000000     0.522370000000    -0.386544   
O74      O      0.820860000000     0.863660000000     0.524170000000    -0.385431   
O75      O      0.776880000000     0.819600000000     0.524200000000    -0.385633   
O76      O      0.864570000000     0.819650000000     0.522380000000    -0.386917   
O77      O      0.863920000000     0.820550000000     0.449960000000    -0.385361   
O78      O      0.776180000000     0.820700000000     0.451780000000    -0.386663   
O79      O      0.819960000000     0.864310000000     0.451760000000    -0.387023   
O80      O      0.819820000000     0.776610000000     0.449950000000    -0.385558   
O81      O      0.821730000000     0.198070000000     0.950620000000    -0.386625   
O82      O      0.821680000000     0.110320000000     0.950790000000    -0.385372   
O83      O      0.777700000000     0.154370000000     0.950050000000    -0.385782   
O84      O      0.865390000000     0.154350000000     0.951240000000    -0.386993   
O85      O      0.864960000000     0.154150000000     0.023670000000    -0.385271   
O86      O      0.777200000000     0.153960000000     0.022480000000    -0.386511   
O87      O      0.821000000000     0.110360000000     0.023220000000    -0.386796   
O88      O      0.820830000000     0.198070000000     0.023050000000    -0.385564   
O89      O      0.822390000000     0.197540000000     0.451160000000    -0.386278   
O90      O      0.821650000000     0.109820000000     0.452070000000    -0.3861     
O91      O      0.778020000000     0.154160000000     0.450890000000    -0.385735   
O92      O      0.865710000000     0.153220000000     0.452290000000    -0.387066   
O93      O      0.865220000000     0.154480000000     0.524690000000    -0.385286   
O94      O      0.777460000000     0.153470000000     0.523320000000    -0.386454   
O95      O      0.821570000000     0.110130000000     0.524510000000    -0.386057   
O96      O      0.820780000000     0.197860000000     0.523560000000    -0.385977   
O97      O      0.154770000000     0.198250000000     0.023680000000    -0.386614   
O98      O      0.154850000000     0.110510000000     0.024000000000    -0.385442   
O99      O      0.198840000000     0.154570000000     0.024010000000    -0.385447   
O100     O      0.111110000000     0.154510000000     0.023740000000    -0.386702   
O101     O      0.111250000000     0.154130000000     0.951310000000    -0.385491   
O102     O      0.198980000000     0.153980000000     0.951570000000    -0.38665    
O103     O      0.155210000000     0.110360000000     0.951570000000    -0.38688    
O104     O      0.155340000000     0.198080000000     0.951240000000    -0.385428   
O105     O      0.154690000000     0.198160000000     0.523950000000    -0.386039   
O106     O      0.156290000000     0.110440000000     0.522690000000    -0.386081   
O107     O      0.199350000000     0.155120000000     0.522870000000    -0.386101   
O108     O      0.111660000000     0.153510000000     0.523860000000    -0.386254   
O109     O      0.111300000000     0.155540000000     0.451500000000    -0.386012   
O110     O      0.199020000000     0.153890000000     0.450450000000    -0.385941   
O111     O      0.154350000000     0.110870000000     0.450330000000    -0.386275   
O112     O      0.156000000000     0.198570000000     0.451540000000    -0.386063   
O113     O      0.154450000000     0.864230000000     0.951540000000    -0.385319   
O114     O      0.154200000000     0.776470000000     0.952640000000    -0.386407   
O115     O      0.110640000000     0.820300000000     0.952040000000    -0.386937   
O116     O      0.198330000000     0.820080000000     0.952010000000    -0.385657   
O117     O      0.198420000000     0.820950000000     0.024440000000    -0.386464   
O118     O      0.110660000000     0.820940000000     0.024470000000    -0.385362   
O119     O      0.154700000000     0.776940000000     0.025080000000    -0.38558    
O120     O      0.154720000000     0.864630000000     0.023970000000    -0.386955   
O121     O      0.153710000000     0.776610000000     0.451000000000    -0.386373   
O122     O      0.154780000000     0.864370000000     0.449440000000    -0.385226   
O123     O      0.198130000000     0.819890000000     0.450680000000    -0.385976   
O124     O      0.110400000000     0.820760000000     0.449690000000    -0.385969   
O125     O      0.110080000000     0.820910000000     0.522130000000    -0.386183   
O126     O      0.197790000000     0.821580000000     0.523080000000    -0.386242   
O127     O      0.153510000000     0.864920000000     0.521840000000    -0.387098   
O128     O      0.154380000000     0.777240000000     0.523430000000    -0.385818   


