data_structure

_audit_creation_method RASPA-1.0
_audit_creation_date 2023-5-22
_audit_author_name 'Poobodin Mano'

_cell_length_a    46.2247
_cell_length_b    46.224
_cell_length_c    30.8533
_cell_angle_alpha 89.9999
_cell_angle_beta  90.0001
_cell_angle_gamma 90
_cell_volume      65924

_symmetry_cell_setting          triclinic
_symmetry_space_group_name_Hall 'P 1'
_symmetry_space_group_name_H-M  'P 1'
_symmetry_Int_Tables_number     1

_symmetry_equiv_pos_as_xyz 'x,y,z'

loop_
_atom_site_label
_atom_site_type_symbol
_atom_site_fract_x
_atom_site_fract_y
_atom_site_fract_z
_atom_site_charge
C1       C      0.320970000000     0.988000000000     0.901210000000     0.354791   
C2       C      0.321190000000     0.987740000000     0.073480000000     0.354523   
C3       C      0.263600000000     0.987290000000     0.987580000000     0.354691   
C4       C      0.378570000000     0.988430000000     0.987120000000     0.354579   
C5       C      0.321220000000     0.988050000000     0.401210000000     0.354745   
C6       C      0.321010000000     0.987790000000     0.573480000000     0.354987   
C7       C      0.378610000000     0.987350000000     0.487550000000     0.354852   
C8       C      0.263630000000     0.988510000000     0.487120000000     0.354654   
C9       C      0.987520000000     0.654180000000     0.073850000000     0.354696   
C10      C      0.987680000000     0.654220000000     0.901570000000     0.354691   
C11      C      0.987620000000     0.711630000000     0.987740000000     0.354928   
C12      C      0.987570000000     0.596660000000     0.987670000000     0.354857   
C13      C      0.987870000000     0.655360000000     0.401580000000     0.354646   
C14      C      0.987490000000     0.655330000000     0.573850000000     0.354951   
C15      C      0.987600000000     0.597870000000     0.487680000000     0.354854   
C16      C      0.987780000000     0.712850000000     0.487720000000     0.354672   
C17      C      0.654940000000     0.988260000000     0.073350000000     0.354783   
C18      C      0.654690000000     0.987990000000     0.901080000000     0.354863   
C19      C      0.597310000000     0.988440000000     0.987400000000     0.354892   
C20      C      0.712280000000     0.987890000000     0.987030000000     0.354598   
C21      C      0.654740000000     0.987750000000     0.573340000000     0.354887   
C22      C      0.654970000000     0.987470000000     0.401080000000     0.354823   
C23      C      0.597350000000     0.987310000000     0.487040000000     0.354612   
C24      C      0.712320000000     0.987840000000     0.487380000000     0.354848   
C25      C      0.988070000000     0.044740000000     0.987310000000     0.355708   
C26      C      0.987780000000     0.929790000000     0.987520000000     0.356012   
C27      C      0.045410000000     0.987060000000     0.987600000000     0.355556   
C28      C      0.930450000000     0.987400000000     0.987240000000     0.355813   
C29      C      0.987800000000     0.046000000000     0.487020000000     0.355825   
C30      C      0.988130000000     0.931040000000     0.487230000000     0.355974   
C31      C      0.045450000000     0.988750000000     0.486970000000     0.355503   
C32      C      0.930490000000     0.988360000000     0.487260000000     0.355754   
C33      C      0.987840000000     0.320420000000     0.073000000000     0.354641   
C34      C      0.987460000000     0.320450000000     0.900730000000     0.354683   
C35      C      0.987590000000     0.377920000000     0.986910000000     0.354745   
C36      C      0.987740000000     0.262940000000     0.986850000000     0.354847   
C37      C      0.987500000000     0.321600000000     0.400730000000     0.354673   
C38      C      0.987660000000     0.321570000000     0.573010000000     0.354608   
C39      C      0.987550000000     0.379120000000     0.486920000000     0.354936   
C40      C      0.987600000000     0.264150000000     0.486840000000     0.354982   
C41      C      0.962560000000     0.328900000000     0.784350000000    -0.0656682  
C42      C      0.987480000000     0.320900000000     0.761030000000     0.0212366  
C43      C      0.012350000000     0.312680000000     0.784280000000    -0.0643015  
C44      C      0.012360000000     0.312680000000     0.829580000000     0.0250106  
C45      C      0.987400000000     0.320520000000     0.852760000000    -0.106612   
C46      C      0.962470000000     0.328520000000     0.829660000000     0.0236171  
C47      C      0.987540000000     0.321110000000     0.712710000000     0.0212078  
C48      C      0.962690000000     0.313050000000     0.689300000000    -0.0657769  
C49      C      0.962690000000     0.313390000000     0.644010000000     0.0235054  
C50      C      0.987660000000     0.321420000000     0.620980000000    -0.106538   
C51      C      0.012570000000     0.329290000000     0.644230000000     0.0250533  
C52      C      0.012460000000     0.329330000000     0.689540000000    -0.0641256  
C53      C      0.962920000000     0.312620000000     0.189430000000    -0.0657239  
C54      C      0.987760000000     0.320900000000     0.212710000000     0.0212011  
C55      C      0.012680000000     0.328940000000     0.189410000000    -0.0641447  
C56      C      0.012800000000     0.328550000000     0.144100000000     0.0249998  
C57      C      0.987890000000     0.320490000000     0.120980000000    -0.10643    
C58      C      0.962930000000     0.312600000000     0.144140000000     0.0234337  
C59      C      0.987670000000     0.321120000000     0.261020000000     0.0211932  
C60      C      0.962730000000     0.329300000000     0.284170000000    -0.0656049  
C61      C      0.962600000000     0.329270000000     0.329480000000     0.023552   
C62      C      0.987520000000     0.321450000000     0.352760000000    -0.106559   
C63      C      0.012510000000     0.313460000000     0.329750000000     0.0249896  
C64      C      0.012530000000     0.313110000000     0.284470000000    -0.0642967  
C65      C      0.962900000000     0.186460000000     0.499790000000    -0.0659516  
C66      C      0.987640000000     0.171090000000     0.486860000000     0.0205648  
C67      C      0.012370000000     0.186480000000     0.473920000000    -0.0644486  
C68      C      0.012440000000     0.216720000000     0.474240000000     0.0251701  
C69      C      0.987610000000     0.232150000000     0.486840000000    -0.106728   
C70      C      0.962800000000     0.216700000000     0.499440000000     0.0237256  
C71      C      0.987660000000     0.139060000000     0.486890000000     0.0235497  
C72      C      0.978150000000     0.123680000000     0.523470000000    -0.0667326  
C73      C      0.978410000000     0.093450000000     0.523650000000     0.0235944  
C74      C      0.987730000000     0.078000000000     0.486970000000    -0.104935   
C75      C      0.997020000000     0.093430000000     0.450240000000     0.022087   
C76      C      0.997200000000     0.123670000000     0.450350000000    -0.0682213  
C77      C      0.012610000000     0.185280000000     0.974030000000    -0.0644039  
C78      C      0.987910000000     0.169860000000     0.986990000000     0.0205474  
C79      C      0.963140000000     0.185210000000     0.999890000000    -0.0659664  
C80      C      0.963000000000     0.215450000000     0.999490000000     0.0236102  
C81      C      0.987790000000     0.230930000000     0.986870000000    -0.106575   
C82      C      0.012640000000     0.215520000000     0.974300000000     0.0250805  
C83      C      0.987980000000     0.137820000000     0.987090000000     0.0234826  
C84      C      0.997590000000     0.122410000000     0.950600000000    -0.0682189  
C85      C      0.997410000000     0.092170000000     0.950540000000     0.0220319  
C86      C      0.988080000000     0.076760000000     0.987250000000    -0.10474    
C87      C      0.978710000000     0.092230000000     0.023890000000     0.0234856  
C88      C      0.978440000000     0.122460000000     0.023670000000    -0.0666463  
C89      C      0.790080000000     0.963370000000     0.500460000000    -0.0659048  
C90      C      0.805390000000     0.988140000000     0.487500000000     0.020441   
C91      C      0.789930000000     0.012830000000     0.474550000000    -0.0644026  
C92      C      0.759700000000     0.012830000000     0.474870000000     0.0250472  
C93      C      0.744330000000     0.987960000000     0.487470000000    -0.106565   
C94      C      0.759840000000     0.963190000000     0.500100000000     0.0235757  
C95      C      0.837420000000     0.988220000000     0.487460000000     0.023557   
C96      C      0.852850000000     0.978710000000     0.523990000000    -0.0668971  
C97      C      0.883090000000     0.978980000000     0.524070000000     0.0235165  
C98      C      0.898480000000     0.988300000000     0.487340000000    -0.105151   
C99      C      0.883000000000     0.997590000000     0.450670000000     0.0220286  
C100     C      0.852760000000     0.997770000000     0.450880000000    -0.0683434  
C101     C      0.646500000000     0.963010000000     0.784700000000    -0.065626   
C102     C      0.654620000000     0.987880000000     0.761370000000     0.0212037  
C103     C      0.662780000000     0.012780000000     0.784620000000    -0.0643152  
C104     C      0.662620000000     0.012850000000     0.829910000000     0.0249931  
C105     C      0.654680000000     0.987920000000     0.853100000000    -0.106583   
C106     C      0.646710000000     0.962970000000     0.830000000000     0.0235614  
C107     C      0.654630000000     0.987860000000     0.713060000000     0.0212124  
C108     C      0.662790000000     0.962970000000     0.689810000000    -0.0657649  
C109     C      0.662650000000     0.962900000000     0.644520000000     0.0235242  
C110     C      0.654710000000     0.987820000000     0.621320000000    -0.106603   
C111     C      0.646740000000     0.012770000000     0.644410000000     0.0251112  
C112     C      0.646520000000     0.012740000000     0.689720000000    -0.0641948  
C113     C      0.646950000000     0.012920000000     0.189920000000    -0.0640689  
C114     C      0.655050000000     0.987950000000     0.213050000000     0.0211874  
C115     C      0.663180000000     0.963140000000     0.189600000000    -0.0657464  
C116     C      0.662990000000     0.963220000000     0.144320000000     0.0235304  
C117     C      0.655050000000     0.988230000000     0.121320000000    -0.106567   
C118     C      0.647140000000     0.013120000000     0.144610000000     0.0249885  
C119     C      0.655050000000     0.987780000000     0.261370000000     0.0212055  
C120     C      0.663190000000     0.012590000000     0.284820000000    -0.0642921  
C121     C      0.663010000000     0.012510000000     0.330100000000     0.0249996  
C122     C      0.655070000000     0.987500000000     0.353100000000    -0.106534   
C123     C      0.647160000000     0.962610000000     0.329820000000     0.0235163  
C124     C      0.646960000000     0.962810000000     0.284510000000    -0.065603   
C125     C      0.790040000000     0.012360000000     0.973960000000    -0.0643527  
C126     C      0.805350000000     0.987590000000     0.986920000000     0.0204251  
C127     C      0.789890000000     0.962900000000     0.999870000000    -0.0659175  
C128     C      0.759660000000     0.962900000000     0.999540000000     0.0235047  
C129     C      0.744290000000     0.987770000000     0.986950000000    -0.106452   
C130     C      0.759800000000     0.012540000000     0.974310000000     0.0249836  
C131     C      0.837380000000     0.987510000000     0.986980000000     0.023533   
C132     C      0.852820000000     0.997030000000     0.950460000000    -0.0683916  
C133     C      0.883060000000     0.996770000000     0.950400000000     0.0221156  
C134     C      0.898450000000     0.987450000000     0.987140000000    -0.105286   
C135     C      0.882950000000     0.978150000000     0.023800000000     0.0235425  
C136     C      0.852710000000     0.977960000000     0.023580000000    -0.0668733  
C137     C      0.962660000000     0.520200000000     0.475210000000    -0.0656568  
C138     C      0.987530000000     0.504620000000     0.487380000000     0.021219   
C139     C      0.012410000000     0.520130000000     0.499680000000    -0.0641575  
C140     C      0.012480000000     0.550360000000     0.499530000000     0.0249968  
C141     C      0.987560000000     0.565840000000     0.487610000000    -0.10649    
C142     C      0.962620000000     0.550430000000     0.475600000000     0.0235243  
C143     C      0.987530000000     0.472370000000     0.487230000000     0.0212455  
C144     C      0.962630000000     0.456800000000     0.499310000000    -0.0656935  
C145     C      0.962580000000     0.426570000000     0.498920000000     0.0235861  
C146     C      0.987530000000     0.411140000000     0.486990000000    -0.106614   
C147     C      0.012480000000     0.426610000000     0.475170000000     0.025011   
C148     C      0.012420000000     0.456850000000     0.475010000000    -0.0641873  
C149     C      0.012670000000     0.790500000000     0.500530000000    -0.0644616  
C150     C      0.987970000000     0.805920000000     0.487550000000     0.0205083  
C151     C      0.963200000000     0.790580000000     0.474660000000    -0.065986   
C152     C      0.963050000000     0.760340000000     0.475070000000     0.0236084  
C153     C      0.987840000000     0.744860000000     0.487700000000    -0.106587   
C154     C      0.012690000000     0.760260000000     0.500260000000     0.0250988  
C155     C      0.988050000000     0.837960000000     0.487450000000     0.0235062  
C156     C      0.997650000000     0.853380000000     0.523940000000    -0.0683411  
C157     C      0.997470000000     0.883620000000     0.524000000000     0.0220525  
C158     C      0.988140000000     0.899030000000     0.487280000000    -0.105187   
C159     C      0.978780000000     0.883550000000     0.450640000000     0.0235142  
C160     C      0.978510000000     0.853320000000     0.450870000000    -0.066857   
C161     C      0.962650000000     0.518980000000     0.975270000000    -0.0656625  
C162     C      0.987540000000     0.503410000000     0.987360000000     0.0212509  
C163     C      0.012430000000     0.518930000000     0.999580000000    -0.0642249  
C164     C      0.012490000000     0.549170000000     0.999410000000     0.0250384  
C165     C      0.987550000000     0.564640000000     0.987590000000    -0.106627   
C166     C      0.962600000000     0.549220000000     0.975660000000     0.0235625  
C167     C      0.987540000000     0.471170000000     0.987210000000     0.0212127  
C168     C      0.962670000000     0.455590000000     0.999380000000    -0.0656854  
C169     C      0.962620000000     0.425360000000     0.998990000000     0.0234942  
C170     C      0.987560000000     0.409940000000     0.986980000000    -0.10655    
C171     C      0.012480000000     0.425410000000     0.975060000000     0.0249946  
C172     C      0.012420000000     0.455650000000     0.974910000000    -0.0641662  
C173     C      0.012480000000     0.646460000000     0.785040000000    -0.0641245  
C174     C      0.987570000000     0.654680000000     0.761870000000     0.0212132  
C175     C      0.962720000000     0.662740000000     0.785280000000    -0.065807   
C176     C      0.962720000000     0.662400000000     0.830570000000     0.0235531  
C177     C      0.987680000000     0.654370000000     0.853600000000    -0.106588   
C178     C      0.012590000000     0.646490000000     0.830350000000     0.0250565  
C179     C      0.987510000000     0.654880000000     0.713550000000     0.0212479  
C180     C      0.012380000000     0.663100000000     0.690300000000    -0.0643766  
C181     C      0.012390000000     0.663110000000     0.645000000000     0.0250654  
C182     C      0.987430000000     0.655270000000     0.621820000000    -0.106705   
C183     C      0.962490000000     0.647270000000     0.644920000000     0.0236287  
C184     C      0.962580000000     0.646890000000     0.690230000000    -0.0656935  
C185     C      0.962950000000     0.663160000000     0.285150000000    -0.0657453  
C186     C      0.987790000000     0.654880000000     0.261870000000     0.0211756  
C187     C      0.012700000000     0.646840000000     0.285170000000    -0.0640831  
C188     C      0.012820000000     0.647220000000     0.330480000000     0.0249847  
C189     C      0.987920000000     0.655290000000     0.353600000000    -0.106465   
C190     C      0.962960000000     0.663180000000     0.330440000000     0.0234684  
C191     C      0.987700000000     0.654660000000     0.213550000000     0.0212326  
C192     C      0.962760000000     0.646480000000     0.190410000000    -0.0656496  
C193     C      0.962620000000     0.646510000000     0.145100000000     0.0235705  
C194     C      0.987540000000     0.654330000000     0.121820000000    -0.106597   
C195     C      0.012530000000     0.662320000000     0.144830000000     0.0250345  
C196     C      0.012560000000     0.662660000000     0.190110000000    -0.0643375  
C197     C      0.962920000000     0.789320000000     0.974770000000    -0.0659171  
C198     C      0.987660000000     0.804690000000     0.987690000000     0.0204609  
C199     C      0.012380000000     0.789310000000     0.000650000000    -0.0644229  
C200     C      0.012460000000     0.759070000000     0.000330000000     0.0251521  
C201     C      0.987640000000     0.743640000000     0.987730000000    -0.106651   
C202     C      0.962820000000     0.759080000000     0.975120000000     0.0235781  
C203     C      0.987670000000     0.836730000000     0.987660000000     0.023581   
C204     C      0.978160000000     0.852090000000     0.951070000000    -0.0669185  
C205     C      0.978410000000     0.882330000000     0.950890000000     0.023543   
C206     C      0.987730000000     0.897780000000     0.987580000000    -0.105278   
C207     C      0.997010000000     0.882360000000     0.024300000000     0.0221953  
C208     C      0.997210000000     0.852120000000     0.024200000000    -0.0684282  
C209     C      0.456390000000     0.011920000000     0.499530000000    -0.0643037  
C210     C      0.471850000000     0.986960000000     0.487450000000     0.0212715  
C211     C      0.456220000000     0.962040000000     0.475620000000    -0.0656149  
C212     C      0.425970000000     0.962070000000     0.476010000000     0.0236276  
C213     C      0.410630000000     0.987120000000     0.487690000000    -0.106606   
C214     C      0.426170000000     0.012050000000     0.499360000000     0.0251627  
C215     C      0.504100000000     0.986970000000     0.487150000000     0.0212449  
C216     C      0.519560000000     0.011850000000     0.474680000000    -0.0641908  
C217     C      0.549790000000     0.012000000000     0.474880000000     0.0249952  
C218     C      0.565330000000     0.987160000000     0.486990000000    -0.106477   
C219     C      0.549970000000     0.962200000000     0.499090000000     0.023528   
C220     C      0.519730000000     0.962160000000     0.499440000000    -0.0656881  
C221     C      0.185840000000     0.964350000000     0.473530000000    -0.0659063  
C222     C      0.170560000000     0.989090000000     0.486710000000     0.0204679  
C223     C      0.186050000000     0.013680000000     0.499970000000    -0.0642781  
C224     C      0.216300000000     0.013620000000     0.499730000000     0.0250024  
C225     C      0.231630000000     0.988780000000     0.486910000000    -0.106556   
C226     C      0.216070000000     0.964110000000     0.473950000000     0.0234978  
C227     C      0.138520000000     0.989170000000     0.486700000000     0.0235491  
C228     C      0.123130000000     0.979700000000     0.450120000000    -0.0666995  
C229     C      0.092890000000     0.979790000000     0.450070000000     0.0234298  
C230     C      0.077460000000     0.988930000000     0.486870000000    -0.104729   
C231     C      0.092910000000     0.998230000000     0.523570000000     0.0220026  
C232     C      0.123150000000     0.998570000000     0.523350000000    -0.0682107  
C233     C      0.456190000000     0.013720000000     0.998980000000    -0.0641537  
C234     C      0.471810000000     0.988800000000     0.987130000000     0.0212815  
C235     C      0.456340000000     0.963850000000     0.975060000000    -0.0657809  
C236     C      0.426120000000     0.963720000000     0.975270000000     0.0235834  
C237     C      0.410590000000     0.988660000000     0.986960000000    -0.106471   
C238     C      0.425950000000     0.013700000000     0.998620000000     0.0250726  
C239     C      0.504060000000     0.988780000000     0.987380000000     0.0212296  
C240     C      0.519690000000     0.013590000000     0.975080000000    -0.0641777  
C241     C      0.549930000000     0.013550000000     0.975400000000     0.0250378  
C242     C      0.565290000000     0.988590000000     0.987480000000    -0.106605   
C243     C      0.549760000000     0.963750000000     0.999600000000     0.0235547  
C244     C      0.519530000000     0.963900000000     0.999840000000    -0.065736   
C245     C      0.312790000000     0.962950000000     0.689930000000    -0.065726   
C246     C      0.320890000000     0.987870000000     0.713190000000     0.021242   
C247     C      0.329050000000     0.012730000000     0.689870000000    -0.0643398  
C248     C      0.328920000000     0.012730000000     0.644580000000     0.0251019  
C249     C      0.320990000000     0.987770000000     0.621450000000    -0.10673    
C250     C      0.313030000000     0.962850000000     0.644620000000     0.0236293  
C251     C      0.320890000000     0.987920000000     0.761500000000     0.0212343  
C252     C      0.312780000000     0.012840000000     0.784760000000    -0.0642354  
C253     C      0.313010000000     0.012940000000     0.830060000000     0.0251259  
C254     C      0.320960000000     0.988020000000     0.853230000000    -0.106601   
C255     C      0.328880000000     0.963060000000     0.830120000000     0.023612   
C256     C      0.329030000000     0.963060000000     0.784830000000    -0.0658137  
C257     C      0.313150000000     0.012720000000     0.189840000000    -0.064255   
C258     C      0.321300000000     0.987860000000     0.213190000000     0.0211755  
C259     C      0.329390000000     0.962930000000     0.189940000000    -0.0656205  
C260     C      0.329150000000     0.962820000000     0.144640000000     0.0235941  
C261     C      0.321200000000     0.987730000000     0.121450000000    -0.106508   
C262     C      0.313290000000     0.012710000000     0.144560000000     0.0249633  
C263     C      0.321300000000     0.987940000000     0.261500000000     0.0212124  
C264     C      0.329400000000     0.012860000000     0.284740000000    -0.0641115  
C265     C      0.329180000000     0.012980000000     0.330050000000     0.025022   
C266     C      0.321220000000     0.988060000000     0.353230000000    -0.106504   
C267     C      0.313300000000     0.963090000000     0.330130000000     0.0235235  
C268     C      0.313160000000     0.963080000000     0.284850000000    -0.0657616  
C269     C      0.185800000000     0.011460000000     0.001140000000    -0.064329   
C270     C      0.170520000000     0.986730000000     0.987950000000     0.0204266  
C271     C      0.186020000000     0.962130000000     0.974700000000    -0.0658096  
C272     C      0.216260000000     0.962190000000     0.974960000000     0.0235193  
C273     C      0.231590000000     0.987030000000     0.987780000000    -0.106515   
C274     C      0.216030000000     0.011700000000     0.000730000000     0.0249621  
C275     C      0.138490000000     0.986640000000     0.987930000000     0.0234971  
C276     C      0.123080000000     0.996120000000     0.024510000000    -0.0681778  
C277     C      0.092840000000     0.996020000000     0.024540000000     0.0220326  
C278     C      0.077420000000     0.986890000000     0.987720000000    -0.104767   
C279     C      0.092880000000     0.977580000000     0.951040000000     0.0234508  
C280     C      0.123120000000     0.977240000000     0.951280000000    -0.0666961  
Cu1      Cu     0.321400000000     0.961070000000     0.987150000000     0.837905   
Cu2      Cu     0.320760000000     0.014660000000     0.987540000000     0.840575   
Cu3      Cu     0.321450000000     0.014720000000     0.487540000000     0.840824   
Cu4      Cu     0.320790000000     0.961130000000     0.487150000000     0.837893   
Cu5      Cu     0.014400000000     0.654140000000     0.987870000000     0.840927   
Cu6      Cu     0.960800000000     0.654170000000     0.987550000000     0.838006   
Cu7      Cu     0.014480000000     0.655320000000     0.487950000000     0.840806   
Cu8      Cu     0.960890000000     0.655400000000     0.487470000000     0.837852   
Cu9      Cu     0.654920000000     0.014950000000     0.987010000000     0.840559   
Cu10     Cu     0.654680000000     0.961350000000     0.987420000000     0.838258   
Cu11     Cu     0.654720000000     0.014380000000     0.487010000000     0.841109   
Cu12     Cu     0.654960000000     0.960790000000     0.487410000000     0.837594   
Cu13     Cu     0.987870000000     0.987290000000     0.027550000000     0.836921   
Cu14     Cu     0.987990000000     0.987230000000     0.947280000000     0.836386   
Cu15     Cu     0.988020000000     0.988550000000     0.527260000000     0.836524   
Cu16     Cu     0.987920000000     0.988490000000     0.446990000000     0.83677    
Cu17     Cu     0.014450000000     0.320460000000     0.986630000000     0.840777   
Cu18     Cu     0.960860000000     0.320390000000     0.987110000000     0.83779    
Cu19     Cu     0.960780000000     0.321620000000     0.487030000000     0.837864   
Cu20     Cu     0.014370000000     0.321640000000     0.486710000000     0.840918   
H1       H      0.031780000000     0.305860000000     0.767560000000     0.0463497  
H2       H      0.031870000000     0.306170000000     0.846400000000     0.0347125  
H3       H      0.942950000000     0.334910000000     0.846570000000     0.0350315  
H4       H      0.943160000000     0.335860000000     0.767680000000     0.0463951  
H5       H      0.943270000000     0.306070000000     0.705890000000     0.0462954  
H6       H      0.943200000000     0.306960000000     0.627060000000     0.0347411  
H7       H      0.032090000000     0.335810000000     0.627450000000     0.0350451  
H8       H      0.031850000000     0.336180000000     0.706340000000     0.0464377  
H9       H      0.032050000000     0.335950000000     0.206090000000     0.0464588  
H10      H      0.032310000000     0.334980000000     0.127210000000     0.0350678  
H11      H      0.943450000000     0.306050000000     0.127300000000     0.0347706  
H12      H      0.943500000000     0.305760000000     0.206140000000     0.0462883  
H13      H      0.943340000000     0.336120000000     0.267340000000     0.0463841  
H14      H      0.943060000000     0.335760000000     0.346240000000     0.0350347  
H15      H      0.032000000000     0.307080000000     0.346730000000     0.0347494  
H16      H      0.031970000000     0.306170000000     0.267900000000     0.0463554  
H17      H      0.031780000000     0.175110000000     0.464070000000     0.0472901  
H18      H      0.031870000000     0.227990000000     0.464240000000     0.0346765  
H19      H      0.943360000000     0.227960000000     0.509440000000     0.0346656  
H20      H      0.943500000000     0.175070000000     0.509650000000     0.0471498  
H21      H      0.970850000000     0.135070000000     0.552150000000     0.0473733  
H22      H      0.971040000000     0.082190000000     0.552400000000     0.0351219  
H23      H      0.004420000000     0.082160000000     0.421530000000     0.036925   
H24      H      0.004470000000     0.135040000000     0.421640000000     0.0490765  
H25      H      0.943760000000     0.173800000000     0.009760000000     0.047185   
H26      H      0.943540000000     0.226680000000     0.009470000000     0.0347148  
H27      H      0.032050000000     0.226820000000     0.964280000000     0.0346988  
H28      H      0.032040000000     0.173930000000     0.964200000000     0.0472411  
H29      H      0.004880000000     0.133770000000     0.921900000000     0.0490665  
H30      H      0.004840000000     0.080880000000     0.921860000000     0.0369262  
H31      H      0.971300000000     0.080980000000     0.052630000000     0.0351672  
H32      H      0.971100000000     0.133870000000     0.052310000000     0.0473524  
H33      H      0.801260000000     0.032260000000     0.464680000000     0.04717    
H34      H      0.748370000000     0.032220000000     0.464840000000     0.0346525  
H35      H      0.748630000000     0.943730000000     0.510110000000     0.0346732  
H36      H      0.801510000000     0.944000000000     0.510330000000     0.0470614  
H37      H      0.841510000000     0.971410000000     0.552700000000     0.0472856  
H38      H      0.894400000000     0.971610000000     0.552770000000     0.0348171  
H39      H      0.894220000000     0.004990000000     0.421920000000     0.0366284  
H40      H      0.841340000000     0.005040000000     0.422210000000     0.0489623  
H41      H      0.669690000000     0.032170000000     0.767890000000     0.0463466  
H42      H      0.669110000000     0.032370000000     0.846740000000     0.0347099  
H43      H      0.640250000000     0.943480000000     0.846910000000     0.035061   
H44      H      0.639580000000     0.943590000000     0.768030000000     0.0463734  
H45      H      0.669700000000     0.943570000000     0.706540000000     0.0462655  
H46      H      0.669140000000     0.943380000000     0.627700000000     0.0347154  
H47      H      0.640280000000     0.032270000000     0.627500000000     0.0350615  
H48      H      0.639590000000     0.032150000000     0.706380000000     0.0464618  
H49      H      0.670080000000     0.943670000000     0.206160000000     0.046249   
H50      H      0.669430000000     0.943750000000     0.127330000000     0.0347346  
H51      H      0.640690000000     0.032670000000     0.127850000000     0.0350252  
H52      H      0.640060000000     0.032290000000     0.206750000000     0.0464101  
H53      H      0.670090000000     0.032050000000     0.268250000000     0.0463219  
H54      H      0.669460000000     0.031980000000     0.347080000000     0.0347241  
H55      H      0.640710000000     0.943060000000     0.346580000000     0.0350109  
H56      H      0.640060000000     0.943450000000     0.267680000000     0.0463801  
H57      H      0.801220000000     0.943470000000     0.009740000000     0.0470745  
H58      H      0.748330000000     0.943510000000     0.009570000000     0.0346892  
H59      H      0.748590000000     0.032000000000     0.964300000000     0.0346972  
H60      H      0.801480000000     0.031730000000     0.964100000000     0.0471623  
H61      H      0.841480000000     0.004330000000     0.921740000000     0.0489747  
H62      H      0.894370000000     0.004140000000     0.921700000000     0.0366022  
H63      H      0.894170000000     0.970760000000     0.052560000000     0.0348246  
H64      H      0.841290000000     0.970700000000     0.052240000000     0.0472953  
H65      H      0.031800000000     0.508950000000     0.510030000000     0.0464222  
H66      H      0.031990000000     0.561590000000     0.509290000000     0.0350423  
H67      H      0.943130000000     0.561720000000     0.465910000000     0.0350312  
H68      H      0.943260000000     0.509080000000     0.464770000000     0.0463793  
H69      H      0.943220000000     0.467930000000     0.509680000000     0.0463901  
H70      H      0.943070000000     0.415290000000     0.508550000000     0.0350221  
H71      H      0.031990000000     0.415370000000     0.465460000000     0.0350348  
H72      H      0.031830000000     0.468010000000     0.464720000000     0.0464399  
H73      H      0.943830000000     0.801990000000     0.464770000000     0.0470904  
H74      H      0.943590000000     0.749110000000     0.465080000000     0.0346478  
H75      H      0.032100000000     0.748960000000     0.510290000000     0.0346487  
H76      H      0.032100000000     0.801840000000     0.510360000000     0.0471801  
H77      H      0.004940000000     0.842020000000     0.552650000000     0.0489504  
H78      H      0.004890000000     0.894910000000     0.552690000000     0.0366131  
H79      H      0.971380000000     0.894790000000     0.421900000000     0.0348365  
H80      H      0.971180000000     0.841910000000     0.422230000000     0.047262   
H81      H      0.031840000000     0.507760000000     0.009860000000     0.0464672  
H82      H      0.032010000000     0.560400000000     0.009120000000     0.0350421  
H83      H      0.943090000000     0.560500000000     0.966030000000     0.0350231  
H84      H      0.943230000000     0.507860000000     0.964900000000     0.0463684  
H85      H      0.943270000000     0.466710000000     0.009810000000     0.0464134  
H86      H      0.943130000000     0.414080000000     0.008680000000     0.0350562  
H87      H      0.031980000000     0.414180000000     0.965300000000     0.0350382  
H88      H      0.031810000000     0.466820000000     0.964560000000     0.0464284  
H89      H      0.943300000000     0.669720000000     0.768690000000     0.0462843  
H90      H      0.943230000000     0.668830000000     0.847520000000     0.0347149  
H91      H      0.032110000000     0.639970000000     0.847130000000     0.0350363  
H92      H      0.031870000000     0.639600000000     0.768240000000     0.0464253  
H93      H      0.031800000000     0.669920000000     0.707020000000     0.0463681  
H94      H      0.031900000000     0.669610000000     0.628180000000     0.0346809  
H95      H      0.942970000000     0.640880000000     0.628010000000     0.0350205  
H96      H      0.943180000000     0.639930000000     0.706890000000     0.0464045  
H97      H      0.032080000000     0.639820000000     0.268490000000     0.0464123  
H98      H      0.032330000000     0.640800000000     0.347370000000     0.0350604  
H99      H      0.943470000000     0.669740000000     0.347280000000     0.0347382  
H100     H      0.943530000000     0.670020000000     0.268440000000     0.0462686  
H101     H      0.943370000000     0.639670000000     0.207240000000     0.0463964  
H102     H      0.943080000000     0.640020000000     0.128340000000     0.0350256  
H103     H      0.032030000000     0.668700000000     0.127850000000     0.0347185  
H104     H      0.032000000000     0.669610000000     0.206680000000     0.0463391  
H105     H      0.031790000000     0.800680000000     0.010500000000     0.0472019  
H106     H      0.031890000000     0.747800000000     0.010340000000     0.0346407  
H107     H      0.943390000000     0.747820000000     0.965120000000     0.0346567  
H108     H      0.943520000000     0.800700000000     0.964890000000     0.047049   
H109     H      0.970880000000     0.840700000000     0.922390000000     0.0472943  
H110     H      0.971050000000     0.893590000000     0.922140000000     0.0348206  
H111     H      0.004400000000     0.893640000000     0.053020000000     0.0365958  
H112     H      0.004470000000     0.840750000000     0.052910000000     0.0490065  
H113     H      0.467310000000     0.942570000000     0.465400000000     0.0464105  
H114     H      0.414630000000     0.942560000000     0.466530000000     0.034988   
H115     H      0.414990000000     0.031640000000     0.508910000000     0.034746   
H116     H      0.467590000000     0.031340000000     0.509680000000     0.0463839  
H117     H      0.508360000000     0.031190000000     0.464200000000     0.0464328  
H118     H      0.560980000000     0.031510000000     0.465020000000     0.0350203  
H119     H      0.561300000000     0.942760000000     0.508900000000     0.0350348  
H120     H      0.508650000000     0.942770000000     0.509980000000     0.046449   
H121     H      0.174750000000     0.033090000000     0.510030000000     0.0472853  
H122     H      0.227660000000     0.032930000000     0.510010000000     0.0349825  
H123     H      0.227230000000     0.944670000000     0.463760000000     0.0347293  
H124     H      0.174380000000     0.945050000000     0.463430000000     0.0470923  
H125     H      0.134500000000     0.972510000000     0.421360000000     0.0473319  
H126     H      0.081620000000     0.972430000000     0.421330000000     0.0351841  
H127     H      0.081650000000     0.005490000000     0.552370000000     0.0369675  
H128     H      0.134540000000     0.005800000000     0.552060000000     0.0490909  
H129     H      0.467530000000     0.944430000000     0.964910000000     0.0463401  
H130     H      0.414930000000     0.944140000000     0.965740000000     0.0347825  
H131     H      0.414610000000     0.033210000000     0.008110000000     0.0350382  
H132     H      0.467290000000     0.033190000000     0.009180000000     0.0464892  
H133     H      0.508610000000     0.032990000000     0.964560000000     0.0464793  
H134     H      0.561260000000     0.032980000000     0.965570000000     0.0350241  
H135     H      0.560950000000     0.944240000000     0.009450000000     0.0350216  
H136     H      0.508320000000     0.944570000000     0.010330000000     0.0464208  
H137     H      0.335950000000     0.032150000000     0.706530000000     0.046424   
H138     H      0.335400000000     0.032230000000     0.627690000000     0.0347382  
H139     H      0.306590000000     0.943330000000     0.627770000000     0.0349988  
H140     H      0.305870000000     0.943560000000     0.706650000000     0.0463692  
H141     H      0.305870000000     0.032230000000     0.768030000000     0.0464251  
H142     H      0.306560000000     0.032470000000     0.846920000000     0.0350153  
H143     H      0.335360000000     0.943560000000     0.847000000000     0.0347547  
H144     H      0.335930000000     0.943640000000     0.768170000000     0.0463715  
H145     H      0.336300000000     0.943540000000     0.206690000000     0.0463828  
H146     H      0.335590000000     0.943290000000     0.127800000000     0.0350185  
H147     H      0.306810000000     0.032200000000     0.127660000000     0.0347353  
H148     H      0.306260000000     0.032150000000     0.206500000000     0.0463353  
H149     H      0.336320000000     0.032250000000     0.268000000000     0.0464311  
H150     H      0.335620000000     0.032510000000     0.346890000000     0.0350272  
H151     H      0.306830000000     0.943600000000     0.347030000000     0.0347282  
H152     H      0.306260000000     0.943650000000     0.268200000000     0.0462871  
H153     H      0.174720000000     0.942730000000     0.964630000000     0.0471807  
H154     H      0.227620000000     0.942880000000     0.964690000000     0.03497    
H155     H      0.227200000000     0.031140000000     0.010920000000     0.0347438  
H156     H      0.174340000000     0.030770000000     0.011230000000     0.047188   
H157     H      0.134440000000     0.003310000000     0.053270000000     0.0490489  
H158     H      0.081560000000     0.003380000000     0.053270000000     0.0369689  
H159     H      0.081630000000     0.970320000000     0.922230000000     0.0351871  
H160     H      0.134520000000     0.970010000000     0.922580000000     0.0473844  
O1       O      0.321400000000     0.963800000000     0.921510000000    -0.386371   
O2       O      0.321560000000     0.963600000000     0.052950000000    -0.385109   
O3       O      0.277470000000     0.963250000000     0.987110000000    -0.385217   
O4       O      0.365180000000     0.964130000000     0.986880000000    -0.386345   
O5       O      0.364700000000     0.012480000000     0.987500000000    -0.383925   
O6       O      0.276970000000     0.011600000000     0.987890000000    -0.385163   
O7       O      0.320790000000     0.011950000000     0.053170000000    -0.385151   
O8       O      0.320570000000     0.012140000000     0.921740000000    -0.384082   
O9       O      0.321590000000     0.012190000000     0.421740000000    -0.384099   
O10      O      0.321450000000     0.011990000000     0.553170000000    -0.385404   
O11      O      0.365230000000     0.011650000000     0.487800000000    -0.385398   
O12      O      0.277510000000     0.012550000000     0.487580000000    -0.383966   
O13      O      0.277000000000     0.964200000000     0.486800000000    -0.386192   
O14      O      0.364730000000     0.963310000000     0.487180000000    -0.38514    
O15      O      0.320600000000     0.963660000000     0.552940000000    -0.385347   
O16      O      0.320820000000     0.963850000000     0.421520000000    -0.386376   
O17      O      0.011710000000     0.654550000000     0.053500000000    -0.385294   
O18      O      0.011830000000     0.653760000000     0.922080000000    -0.384086   
O19      O      0.011790000000     0.698000000000     0.987600000000    -0.38477    
O20      O      0.011740000000     0.610280000000     0.988450000000    -0.384788   
O21      O      0.963410000000     0.610310000000     0.986910000000    -0.38581    
O22      O      0.963440000000     0.698020000000     0.987860000000    -0.385912   
O23      O      0.963490000000     0.654610000000     0.921910000000    -0.386286   
O24      O      0.963370000000     0.653750000000     0.053350000000    -0.385128   
O25      O      0.012000000000     0.654910000000     0.422150000000    -0.384032   
O26      O      0.011700000000     0.655720000000     0.553580000000    -0.385377   
O27      O      0.011780000000     0.611460000000     0.488540000000    -0.384797   
O28      O      0.011930000000     0.699180000000     0.487660000000    -0.384685   
O29      O      0.963580000000     0.699260000000     0.487790000000    -0.385624   
O30      O      0.963450000000     0.611530000000     0.486850000000    -0.385736   
O31      O      0.963370000000     0.654960000000     0.553270000000    -0.385241   
O32      O      0.963660000000     0.655820000000     0.421850000000    -0.386398   
O33      O      0.654590000000     0.012410000000     0.052830000000    -0.383878   
O34      O      0.655230000000     0.012200000000     0.921360000000    -0.385182   
O35      O      0.611050000000     0.012540000000     0.986540000000    -0.384767   
O36      O      0.698760000000     0.012130000000     0.987170000000    -0.384652   
O37      O      0.698560000000     0.963770000000     0.986970000000    -0.38565    
O38      O      0.610830000000     0.964210000000     0.988160000000    -0.385838   
O39      O      0.654190000000     0.963870000000     0.921640000000    -0.385429   
O40      O      0.655210000000     0.964070000000     0.053020000000    -0.386612   
O41      O      0.654230000000     0.011870000000     0.552780000000    -0.384394   
O42      O      0.655240000000     0.011670000000     0.421400000000    -0.385477   
O43      O      0.610870000000     0.011540000000     0.486270000000    -0.384666   
O44      O      0.698600000000     0.011960000000     0.487440000000    -0.384638   
O45      O      0.698800000000     0.963610000000     0.487240000000    -0.385867   
O46      O      0.611090000000     0.963200000000     0.487890000000    -0.385647   
O47      O      0.654620000000     0.963330000000     0.421590000000    -0.385108   
O48      O      0.655270000000     0.963540000000     0.553060000000    -0.386229   
O49      O      0.987110000000     0.031150000000     0.023530000000    -0.384813   
O50      O      0.988650000000     0.943440000000     0.023690000000    -0.386255   
O51      O      0.031730000000     0.988040000000     0.023750000000    -0.384968   
O52      O      0.944030000000     0.986520000000     0.023470000000    -0.386045   
O53      O      0.944130000000     0.988240000000     0.951080000000    -0.385966   
O54      O      0.031840000000     0.986210000000     0.951360000000    -0.384761   
O55      O      0.986980000000     0.943380000000     0.951300000000    -0.385997   
O56      O      0.988980000000     0.031090000000     0.951150000000    -0.385022   
O57      O      0.986990000000     0.032400000000     0.523240000000    -0.384834   
O58      O      0.989030000000     0.944690000000     0.523390000000    -0.386161   
O59      O      0.031860000000     0.989590000000     0.523210000000    -0.38491    
O60      O      0.944160000000     0.987530000000     0.523430000000    -0.385794   
O61      O      0.944080000000     0.989250000000     0.451040000000    -0.386201   
O62      O      0.031780000000     0.987760000000     0.450820000000    -0.384847   
O63      O      0.987170000000     0.944630000000     0.451010000000    -0.385939   
O64      O      0.988680000000     0.032350000000     0.450850000000    -0.385047   
O65      O      0.011970000000     0.320870000000     0.052430000000    -0.383991   
O66      O      0.011680000000     0.320060000000     0.921000000000    -0.385222   
O67      O      0.011770000000     0.364310000000     0.986050000000    -0.384744   
O68      O      0.011890000000     0.276590000000     0.986920000000    -0.384744   
O69      O      0.963540000000     0.276530000000     0.986790000000    -0.385685   
O70      O      0.963440000000     0.364260000000     0.987740000000    -0.385694   
O71      O      0.963340000000     0.320830000000     0.921310000000    -0.385178   
O72      O      0.963630000000     0.319970000000     0.052730000000    -0.386361   
O73      O      0.963350000000     0.322030000000     0.421230000000    -0.38512    
O74      O      0.963470000000     0.321170000000     0.552660000000    -0.386284   
O75      O      0.963390000000     0.365480000000     0.487670000000    -0.38587    
O76      O      0.963420000000     0.277760000000     0.486710000000    -0.385785   
O77      O      0.011770000000     0.277780000000     0.486980000000    -0.384737   
O78      O      0.011720000000     0.365500000000     0.486130000000    -0.384813   
O79      O      0.011810000000     0.322020000000     0.552500000000    -0.384048   
O80      O      0.011690000000     0.321230000000     0.421080000000    -0.385288   


