data_structure

_audit_creation_method RASPA-1.0
_audit_creation_date 2023-5-22
_audit_author_name 'Poobodin Mano'

_cell_length_a    61.6495
_cell_length_b    61.6498
_cell_length_c    30.853
_cell_angle_alpha 90
_cell_angle_beta  90
_cell_angle_gamma 90
_cell_volume      117262

_symmetry_cell_setting          triclinic
_symmetry_space_group_name_Hall 'P 1'
_symmetry_space_group_name_H-M  'P 1'
_symmetry_Int_Tables_number     1

_symmetry_equiv_pos_as_xyz 'x,y,z'

loop_
_atom_site_label
_atom_site_type_symbol
_atom_site_fract_x
_atom_site_fract_y
_atom_site_fract_z
_atom_site_charge
C1       C      0.362400000000     0.905370000000     0.988690000000     0.356425   
C2       C      0.362470000000     0.819160000000     0.989130000000     0.356211   
C3       C      0.362570000000     0.862350000000     0.075070000000     0.356221   
C4       C      0.362300000000     0.862190000000     0.902800000000     0.356582   
C5       C      0.362450000000     0.819850000000     0.489160000000     0.356261   
C6       C      0.362440000000     0.906060000000     0.488660000000     0.356339   
C7       C      0.362370000000     0.862830000000     0.402800000000     0.35658    
C8       C      0.362510000000     0.863010000000     0.575070000000     0.35624    
C9       C      0.362410000000     0.069380000000     0.985980000000     0.356075   
C10      C      0.362510000000     0.155580000000     0.985400000000     0.35644    
C11      C      0.362520000000     0.112400000000     0.899530000000     0.35648    
C12      C      0.362380000000     0.112630000000     0.071800000000     0.356546   
C13      C      0.362430000000     0.070070000000     0.485870000000     0.356353   
C14      C      0.362380000000     0.156280000000     0.485530000000     0.356681   
C15      C      0.362540000000     0.113120000000     0.399540000000     0.35653    
C16      C      0.362270000000     0.113230000000     0.571810000000     0.356477   
C17      C      0.905510000000     0.612850000000     0.988650000000     0.356434   
C18      C      0.819300000000     0.612780000000     0.989080000000     0.356311   
C19      C      0.862470000000     0.612710000000     0.075020000000     0.356492   
C20      C      0.862310000000     0.612920000000     0.902750000000     0.356578   
C21      C      0.819370000000     0.612790000000     0.489050000000     0.35646    
C22      C      0.905570000000     0.612800000000     0.488680000000     0.356446   
C23      C      0.862380000000     0.612900000000     0.402750000000     0.356154   
C24      C      0.862520000000     0.612700000000     0.575020000000     0.356526   
C25      C      0.069520000000     0.612850000000     0.986370000000     0.356325   
C26      C      0.155730000000     0.612750000000     0.985930000000     0.356243   
C27      C      0.112560000000     0.612710000000     0.899990000000     0.356513   
C28      C      0.112730000000     0.612910000000     0.072260000000     0.356584   
C29      C      0.069590000000     0.612820000000     0.486340000000     0.356454   
C30      C      0.155800000000     0.612860000000     0.485960000000     0.356318   
C31      C      0.112640000000     0.612740000000     0.399990000000     0.356539   
C32      C      0.112780000000     0.612950000000     0.572260000000     0.356179   
C33      C      0.612720000000     0.069590000000     0.987790000000     0.35643    
C34      C      0.612660000000     0.155800000000     0.988200000000     0.356688   
C35      C      0.612790000000     0.112790000000     0.901870000000     0.356548   
C36      C      0.612600000000     0.112640000000     0.074140000000     0.35652    
C37      C      0.612690000000     0.069790000000     0.487830000000     0.356467   
C38      C      0.612700000000     0.155990000000     0.488140000000     0.356718   
C39      C      0.612810000000     0.112950000000     0.401870000000     0.356513   
C40      C      0.612580000000     0.112850000000     0.574140000000     0.356559   
C41      C      0.612690000000     0.905580000000     0.986120000000     0.356364   
C42      C      0.612620000000     0.819370000000     0.985800000000     0.356724   
C43      C      0.612770000000     0.862400000000     0.072080000000     0.356154   
C44      C      0.612550000000     0.862520000000     0.899810000000     0.356137   
C45      C      0.612670000000     0.905770000000     0.486090000000     0.356481   
C46      C      0.612660000000     0.819560000000     0.485850000000     0.356328   
C47      C      0.612760000000     0.862600000000     0.572080000000     0.356174   
C48      C      0.612570000000     0.862690000000     0.399810000000     0.356235   
C49      C      0.319330000000     0.362060000000     0.987330000000     0.356377   
C50      C      0.405540000000     0.362370000000     0.986560000000     0.356461   
C51      C      0.362580000000     0.319140000000     0.986250000000     0.356488   
C52      C      0.362270000000     0.405350000000     0.987350000000     0.356285   
C53      C      0.319370000000     0.363210000000     0.488190000000     0.356517   
C54      C      0.405570000000     0.362760000000     0.486880000000     0.356335   
C55      C      0.362290000000     0.319870000000     0.486890000000     0.356498   
C56      C      0.362630000000     0.406080000000     0.487860000000     0.35638    
C57      C      0.319300000000     0.612520000000     0.986810000000     0.356489   
C58      C      0.405510000000     0.612460000000     0.987710000000     0.356286   
C59      C      0.362450000000     0.655580000000     0.987970000000     0.356505   
C60      C      0.362330000000     0.569370000000     0.986840000000     0.356133   
C61      C      0.319370000000     0.613130000000     0.487040000000     0.356402   
C62      C      0.405580000000     0.613240000000     0.488020000000     0.356472   
C63      C      0.362430000000     0.656280000000     0.488170000000     0.356555   
C64      C      0.362510000000     0.570080000000     0.487180000000     0.356367   
C65      C      0.655760000000     0.362440000000     0.986740000000     0.356355   
C66      C      0.569550000000     0.362470000000     0.987530000000     0.356347   
C67      C      0.612630000000     0.319370000000     0.987660000000     0.356366   
C68      C      0.612700000000     0.405570000000     0.986890000000     0.356368   
C69      C      0.612740000000     0.319570000000     0.487400000000     0.356425   
C70      C      0.612660000000     0.405780000000     0.486710000000     0.356362   
C71      C      0.655790000000     0.362740000000     0.486380000000     0.356594   
C72      C      0.569590000000     0.362600000000     0.487420000000     0.356494   
C73      C      0.655730000000     0.612720000000     0.988000000000     0.356465   
C74      C      0.569520000000     0.612670000000     0.986990000000     0.356496   
C75      C      0.612590000000     0.655790000000     0.986860000000     0.3565     
C76      C      0.612690000000     0.569590000000     0.987840000000     0.356427   
C77      C      0.655790000000     0.612850000000     0.488060000000     0.356587   
C78      C      0.569590000000     0.612960000000     0.487150000000     0.356397   
C79      C      0.612720000000     0.656000000000     0.487010000000     0.356507   
C80      C      0.612680000000     0.569790000000     0.487880000000     0.356483   
C81      C      0.155750000000     0.362310000000     0.988690000000     0.356395   
C82      C      0.069550000000     0.363160000000     0.988750000000     0.356453   
C83      C      0.112640000000     0.362620000000     0.902610000000     0.356594   
C84      C      0.112660000000     0.362860000000     0.074880000000     0.356146   
C85      C      0.155790000000     0.363230000000     0.489160000000     0.356411   
C86      C      0.069590000000     0.362370000000     0.488290000000     0.356468   
C87      C      0.112530000000     0.362860000000     0.574880000000     0.356285   
C88      C      0.112850000000     0.362720000000     0.402610000000     0.356524   
C89      C      0.819330000000     0.362770000000     0.985850000000     0.356674   
C90      C      0.905540000000     0.363150000000     0.985980000000     0.356766   
C91      C      0.862420000000     0.362820000000     0.072030000000     0.356349   
C92      C      0.862420000000     0.363030000000     0.899760000000     0.356323   
C93      C      0.819370000000     0.362690000000     0.485540000000     0.356691   
C94      C      0.905570000000     0.362330000000     0.486290000000     0.356456   
C95      C      0.862290000000     0.362440000000     0.572030000000     0.356264   
C96      C      0.862610000000     0.362640000000     0.399760000000     0.356361   
C97      C      0.856240000000     0.344190000000     0.783510000000    -0.0658839  
C98      C      0.862310000000     0.362800000000     0.760050000000     0.0226603  
C99      C      0.868390000000     0.381520000000     0.783180000000    -0.0656557  
C100     C      0.868270000000     0.381670000000     0.828490000000     0.0235015  
C101     C      0.862350000000     0.363010000000     0.851780000000    -0.105139   
C102     C      0.856390000000     0.344260000000     0.828790000000     0.0235105  
C103     C      0.862280000000     0.362670000000     0.711740000000     0.0226532  
C104     C      0.868340000000     0.343950000000     0.688590000000    -0.0657066  
C105     C      0.868170000000     0.343800000000     0.643280000000     0.0235072  
C106     C      0.862220000000     0.362460000000     0.620000000000    -0.105146   
C107     C      0.856270000000     0.381210000000     0.643010000000     0.023455   
C108     C      0.856160000000     0.381270000000     0.688300000000    -0.0658124  
C109     C      0.868700000000     0.381380000000     0.283370000000    -0.0657575  
C110     C      0.862590000000     0.362720000000     0.260050000000     0.0226312  
C111     C      0.856500000000     0.344060000000     0.283320000000    -0.0657575  
C112     C      0.856650000000     0.344000000000     0.328610000000     0.0234094  
C113     C      0.862620000000     0.362690000000     0.351780000000    -0.105172   
C114     C      0.868570000000     0.381400000000     0.328670000000     0.0235934  
C115     C      0.862550000000     0.362740000000     0.211740000000     0.0226773  
C116     C      0.856410000000     0.381400000000     0.188510000000    -0.065852   
C117     C      0.856490000000     0.381450000000     0.143210000000     0.0234423  
C118     C      0.862440000000     0.362760000000     0.120010000000    -0.105189   
C119     C      0.868430000000     0.344060000000     0.143090000000     0.0235965  
C120     C      0.868620000000     0.344090000000     0.188390000000    -0.0657087  
C121     C      0.963820000000     0.343500000000     0.474720000000    -0.0656349  
C122     C      0.975490000000     0.362100000000     0.487210000000     0.0226353  
C123     C      0.963840000000     0.380750000000     0.499500000000    -0.0657303  
C124     C      0.941180000000     0.380860000000     0.498920000000     0.0235715  
C125     C      0.929580000000     0.362240000000     0.486620000000    -0.105196   
C126     C      0.941150000000     0.343530000000     0.474700000000     0.0235204  
C127     C      0.999670000000     0.362090000000     0.487340000000     0.0227666  
C128     C      0.011340000000     0.343410000000     0.499360000000    -0.0656768  
C129     C      0.034020000000     0.343430000000     0.499340000000     0.0235861  
C130     C      0.045580000000     0.362210000000     0.487870000000    -0.10518    
C131     C      0.033970000000     0.380900000000     0.476030000000     0.0236408  
C132     C      0.011310000000     0.380800000000     0.475480000000    -0.0658502  
C133     C      0.106410000000     0.381440000000     0.691370000000    -0.0656383  
C134     C      0.112490000000     0.362750000000     0.714590000000     0.0226141  
C135     C      0.118580000000     0.344120000000     0.691220000000    -0.0657994  
C136     C      0.118460000000     0.344130000000     0.645930000000     0.0234203  
C137     C      0.112510000000     0.362860000000     0.622850000000    -0.105137   
C138     C      0.106560000000     0.381540000000     0.646060000000     0.0235001  
C139     C      0.112530000000     0.362690000000     0.762900000000     0.0227368  
C140     C      0.118660000000     0.381330000000     0.786230000000    -0.0659886  
C141     C      0.118570000000     0.381320000000     0.831520000000     0.0236442  
C142     C      0.112640000000     0.362600000000     0.854630000000    -0.105346   
C143     C      0.106670000000     0.343920000000     0.831470000000     0.0236943  
C144     C      0.106470000000     0.344000000000     0.786160000000    -0.0658404  
C145     C      0.106680000000     0.344190000000     0.191290000000    -0.0657666  
C146     C      0.112820000000     0.362830000000     0.214590000000     0.0226312  
C147     C      0.118870000000     0.381510000000     0.191300000000    -0.0656956  
C148     C      0.118660000000     0.381590000000     0.146000000000     0.0234649  
C149     C      0.112680000000     0.362900000000     0.122860000000    -0.105041   
C150     C      0.106750000000     0.344180000000     0.146000000000     0.0234015  
C151     C      0.112860000000     0.362790000000     0.262900000000     0.0226298  
C152     C      0.106770000000     0.381430000000     0.286250000000    -0.0657489  
C153     C      0.106910000000     0.381440000000     0.331540000000     0.0234556  
C154     C      0.112870000000     0.362720000000     0.354630000000    -0.1052     
C155     C      0.118820000000     0.344030000000     0.331450000000     0.0235066  
C156     C      0.118960000000     0.344110000000     0.286140000000    -0.0657106  
C157     C      0.963910000000     0.344750000000     0.974420000000    -0.0658144  
C158     C      0.975450000000     0.363410000000     0.987060000000     0.0227373  
C159     C      0.963690000000     0.382010000000     0.999140000000    -0.0657588  
C160     C      0.941020000000     0.381990000000     0.998450000000     0.0235012  
C161     C      0.929550000000     0.363270000000     0.986200000000    -0.10529    
C162     C      0.941240000000     0.344640000000     0.974290000000     0.0235708  
C163     C      0.999630000000     0.363430000000     0.987710000000     0.022699   
C164     C      0.011190000000     0.344720000000     0.999990000000    -0.0659109  
C165     C      0.033850000000     0.344630000000     0.000150000000     0.0237064  
C166     C      0.045540000000     0.363330000000     0.988620000000    -0.10522    
C167     C      0.034060000000     0.382100000000     0.976770000000     0.0236247  
C168     C      0.011390000000     0.382110000000     0.976040000000    -0.0656715  
C169     C      0.714130000000     0.369790000000     0.522400000000    -0.0664314  
C170     C      0.725570000000     0.362890000000     0.485540000000     0.02274    
C171     C      0.713950000000     0.355960000000     0.448930000000    -0.0663677  
C172     C      0.691270000000     0.356100000000     0.449040000000     0.0237907  
C173     C      0.679790000000     0.362810000000     0.486050000000    -0.105437   
C174     C      0.691460000000     0.369580000000     0.522790000000     0.0237146  
C175     C      0.749590000000     0.362870000000     0.485350000000     0.0228235  
C176     C      0.761160000000     0.381340000000     0.498580000000    -0.0664167  
C177     C      0.783830000000     0.381360000000     0.498250000000     0.0238687  
C178     C      0.795370000000     0.362770000000     0.485390000000    -0.105489   
C179     C      0.783750000000     0.344250000000     0.472450000000     0.0239306  
C180     C      0.761080000000     0.344360000000     0.472080000000    -0.066514   
C181     C      0.606600000000     0.511460000000     0.524890000000    -0.0656629  
C182     C      0.612650000000     0.499870000000     0.487460000000     0.0226283  
C183     C      0.618750000000     0.511600000000     0.450280000000    -0.0658254  
C184     C      0.618650000000     0.534260000000     0.450410000000     0.0235557  
C185     C      0.612720000000     0.545780000000     0.487880000000    -0.105175   
C186     C      0.606780000000     0.534140000000     0.525180000000     0.023498   
C187     C      0.612640000000     0.475690000000     0.487200000000     0.0227269  
C188     C      0.618740000000     0.463960000000     0.524370000000    -0.0659117  
C189     C      0.618630000000     0.441300000000     0.524220000000     0.0236141  
C190     C      0.612700000000     0.429790000000     0.486740000000    -0.105239   
C191     C      0.606750000000     0.441440000000     0.449470000000     0.0236237  
C192     C      0.606570000000     0.464110000000     0.449780000000    -0.0657466  
C193     C      0.713940000000     0.355580000000     0.949480000000    -0.0662675  
C194     C      0.725540000000     0.362510000000     0.986120000000     0.0225994  
C195     C      0.714070000000     0.369410000000     0.022950000000    -0.0662951  
C196     C      0.691400000000     0.369220000000     0.023280000000     0.023675   
C197     C      0.679760000000     0.362460000000     0.986500000000    -0.10539    
C198     C      0.691260000000     0.355730000000     0.949520000000     0.0237043  
C199     C      0.749560000000     0.362580000000     0.985940000000     0.0228655  
C200     C      0.761130000000     0.344120000000     0.972660000000    -0.0664725  
C201     C      0.783800000000     0.344110000000     0.972970000000     0.0239348  
C202     C      0.795330000000     0.362690000000     0.985860000000    -0.105521   
C203     C      0.783720000000     0.381220000000     0.998760000000     0.0238773  
C204     C      0.761050000000     0.381100000000     0.999140000000    -0.06651    
C205     C      0.618840000000     0.511390000000     0.950340000000    -0.0658538  
C206     C      0.612730000000     0.499670000000     0.987520000000     0.0226279  
C207     C      0.606660000000     0.511270000000     0.024910000000    -0.0656216  
C208     C      0.606820000000     0.533940000000     0.025170000000     0.0236311  
C209     C      0.612760000000     0.545580000000     0.987880000000    -0.105235   
C210     C      0.618720000000     0.534050000000     0.950430000000     0.0235447  
C211     C      0.612720000000     0.475490000000     0.987290000000     0.0226306  
C212     C      0.606680000000     0.463900000000     0.949870000000    -0.0656797  
C213     C      0.606850000000     0.441220000000     0.949590000000     0.0235759  
C214     C      0.612760000000     0.429580000000     0.986890000000    -0.105253   
C215     C      0.618680000000     0.441100000000     0.024370000000     0.0236108  
C216     C      0.618800000000     0.463760000000     0.024480000000    -0.0658068  
C217     C      0.511400000000     0.619170000000     0.524690000000    -0.0658343  
C218     C      0.499670000000     0.613110000000     0.487500000000     0.0226345  
C219     C      0.511260000000     0.607040000000     0.450080000000    -0.0656543  
C220     C      0.533930000000     0.607160000000     0.449820000000     0.0235621  
C221     C      0.545580000000     0.613060000000     0.487130000000    -0.105191   
C222     C      0.534060000000     0.619010000000     0.524590000000     0.0235555  
C223     C      0.475490000000     0.613160000000     0.487720000000     0.022742   
C224     C      0.463880000000     0.607120000000     0.525120000000    -0.0657676  
C225     C      0.441210000000     0.607320000000     0.525370000000     0.0236628  
C226     C      0.429580000000     0.613290000000     0.488070000000    -0.105382   
C227     C      0.441130000000     0.619220000000     0.450630000000     0.0236861  
C228     C      0.463790000000     0.619300000000     0.450530000000    -0.0659563  
C229     C      0.463710000000     0.618610000000     0.950230000000    -0.0657844  
C230     C      0.475430000000     0.612520000000     0.987420000000     0.0225744  
C231     C      0.463830000000     0.606440000000     0.024810000000    -0.0655986  
C232     C      0.441150000000     0.606590000000     0.025060000000     0.023554   
C233     C      0.429520000000     0.612520000000     0.987750000000    -0.10518    
C234     C      0.441050000000     0.618470000000     0.950300000000     0.0235068  
C235     C      0.499610000000     0.612560000000     0.987240000000     0.0227194  
C236     C      0.511230000000     0.606530000000     0.949840000000    -0.0657499  
C237     C      0.533910000000     0.606740000000     0.949610000000     0.0236608  
C238     C      0.545520000000     0.612690000000     0.986930000000    -0.105474   
C239     C      0.533960000000     0.618600000000     0.024370000000     0.0237577  
C240     C      0.511300000000     0.618680000000     0.024440000000    -0.0659429  
C241     C      0.261220000000     0.356800000000     0.525940000000    -0.0663726  
C242     C      0.249590000000     0.363690000000     0.489300000000     0.0227839  
C243     C      0.261020000000     0.370480000000     0.452350000000    -0.0664922  
C244     C      0.283690000000     0.370170000000     0.451870000000     0.0237065  
C245     C      0.295370000000     0.363410000000     0.488610000000    -0.105373   
C246     C      0.283900000000     0.356830000000     0.525740000000     0.023703   
C247     C      0.225570000000     0.363650000000     0.489520000000     0.0226733  
C248     C      0.214120000000     0.345170000000     0.503060000000    -0.0663607  
C249     C      0.191450000000     0.344990000000     0.502680000000     0.0236179  
C250     C      0.179790000000     0.363440000000     0.489430000000    -0.105322   
C251     C      0.191270000000     0.382010000000     0.476320000000     0.0237379  
C252     C      0.213950000000     0.382050000000     0.476020000000    -0.0662389  
C253     C      0.511280000000     0.368600000000     0.524590000000    -0.0656974  
C254     C      0.499670000000     0.362570000000     0.487190000000     0.0227102  
C255     C      0.511370000000     0.356490000000     0.449970000000    -0.0658533  
C256     C      0.534040000000     0.356610000000     0.450030000000     0.0235147  
C257     C      0.545580000000     0.362530000000     0.487490000000    -0.105194   
C258     C      0.533960000000     0.368440000000     0.524820000000     0.0235601  
C259     C      0.475490000000     0.362580000000     0.487010000000     0.0226102  
C260     C      0.463780000000     0.356470000000     0.524210000000    -0.0657874  
C261     C      0.441120000000     0.356630000000     0.524170000000     0.0235064  
C262     C      0.429580000000     0.362620000000     0.486760000000    -0.105131   
C263     C      0.441200000000     0.368540000000     0.449430000000     0.0234925  
C264     C      0.463880000000     0.368670000000     0.449640000000    -0.0656139  
C265     C      0.368760000000     0.464380000000     0.524970000000    -0.065713   
C266     C      0.362680000000     0.475990000000     0.487600000000     0.022734   
C267     C      0.356560000000     0.464290000000     0.450400000000    -0.06597    
C268     C      0.356680000000     0.441630000000     0.450470000000     0.0236935  
C269     C      0.362630000000     0.430080000000     0.487890000000    -0.105358   
C270     C      0.368590000000     0.441700000000     0.525200000000     0.0236115  
C271     C      0.362650000000     0.500170000000     0.487430000000     0.0226462  
C272     C      0.356530000000     0.511860000000     0.524640000000    -0.0658517  
C273     C      0.356600000000     0.534520000000     0.524570000000     0.0235904  
C274     C      0.362500000000     0.546070000000     0.487130000000    -0.105179   
C275     C      0.368460000000     0.534470000000     0.449800000000     0.0234965  
C276     C      0.368670000000     0.511790000000     0.450030000000    -0.0656351  
C277     C      0.260990000000     0.368670000000     0.951040000000    -0.0664863  
C278     C      0.249550000000     0.361820000000     0.987930000000     0.0227607  
C279     C      0.261170000000     0.355000000000     0.024630000000    -0.0663574  
C280     C      0.283850000000     0.355240000000     0.024580000000     0.0238079  
C281     C      0.295330000000     0.361960000000     0.987560000000    -0.105473   
C282     C      0.283660000000     0.368570000000     0.950720000000     0.0237455  
C283     C      0.225530000000     0.361900000000     0.988180000000     0.0226083  
C284     C      0.214060000000     0.380400000000     0.974750000000    -0.0663188  
C285     C      0.191400000000     0.380580000000     0.975240000000     0.0236648  
C286     C      0.179750000000     0.362130000000     0.988510000000    -0.10535    
C287     C      0.191250000000     0.343560000000     0.001610000000     0.0237182  
C288     C      0.213930000000     0.343520000000     0.001800000000    -0.0661914  
C289     C      0.463850000000     0.368540000000     0.949540000000    -0.065633   
C290     C      0.475450000000     0.362480000000     0.986940000000     0.0226404  
C291     C      0.463740000000     0.356350000000     0.024120000000    -0.0658404  
C292     C      0.441080000000     0.356440000000     0.024010000000     0.0236619  
C293     C      0.429550000000     0.362370000000     0.986560000000    -0.105281   
C294     C      0.441170000000     0.368350000000     0.949270000000     0.0235261  
C295     C      0.499630000000     0.362490000000     0.987160000000     0.0225927  
C296     C      0.511350000000     0.356410000000     0.949960000000    -0.0658174  
C297     C      0.534020000000     0.356520000000     0.950060000000     0.0235221  
C298     C      0.545540000000     0.362430000000     0.987530000000    -0.105184   
C299     C      0.533910000000     0.368360000000     0.024850000000     0.0235007  
C300     C      0.511230000000     0.368530000000     0.024580000000    -0.0655676  
C301     C      0.368300000000     0.511070000000     0.949630000000    -0.0656142  
C302     C      0.362230000000     0.499450000000     0.987010000000     0.0225787  
C303     C      0.356140000000     0.511160000000     0.024220000000    -0.0657805  
C304     C      0.356290000000     0.533820000000     0.024180000000     0.0235937  
C305     C      0.362240000000     0.545360000000     0.986760000000    -0.105176   
C306     C      0.368160000000     0.533750000000     0.949420000000     0.0234832  
C307     C      0.362210000000     0.475270000000     0.987180000000     0.0226227  
C308     C      0.356120000000     0.463570000000     0.949960000000    -0.0658395  
C309     C      0.356240000000     0.440910000000     0.950010000000     0.0235598  
C310     C      0.362170000000     0.429360000000     0.987440000000    -0.105211   
C311     C      0.368090000000     0.440970000000     0.024780000000     0.0235662  
C312     C      0.368260000000     0.463650000000     0.024570000000    -0.0656313  
C313     C      0.594150000000     0.761330000000     0.499170000000    -0.0664626  
C314     C      0.612650000000     0.749790000000     0.486000000000     0.0228005  
C315     C      0.631140000000     0.761310000000     0.472710000000    -0.0664131  
C316     C      0.631210000000     0.783980000000     0.472980000000     0.0238292  
C317     C      0.612650000000     0.795570000000     0.485840000000    -0.105424   
C318     C      0.594080000000     0.784000000000     0.498740000000     0.0238241  
C319     C      0.612670000000     0.725770000000     0.486230000000     0.0227475  
C320     C      0.605750000000     0.714330000000     0.523070000000    -0.0664258  
C321     C      0.605940000000     0.691660000000     0.523460000000     0.0237655  
C322     C      0.612700000000     0.679990000000     0.486720000000    -0.105544   
C323     C      0.619450000000     0.691470000000     0.449720000000     0.023796   
C324     C      0.619600000000     0.714150000000     0.449620000000    -0.0663693  
C325     C      0.631040000000     0.761090000000     0.972590000000    -0.0664874  
C326     C      0.612540000000     0.749590000000     0.985860000000     0.0228495  
C327     C      0.594060000000     0.761150000000     0.999040000000    -0.0664263  
C328     C      0.594010000000     0.783820000000     0.998650000000     0.0237962  
C329     C      0.612590000000     0.795370000000     0.985770000000    -0.105461   
C330     C      0.631130000000     0.783770000000     0.972890000000     0.0238694  
C331     C      0.612540000000     0.725570000000     0.986060000000     0.0226237  
C332     C      0.619470000000     0.713940000000     0.949460000000    -0.0662825  
C333     C      0.619310000000     0.691270000000     0.949560000000     0.0237618  
C334     C      0.612560000000     0.679790000000     0.986550000000    -0.105463   
C335     C      0.605790000000     0.691460000000     0.023280000000     0.0237723  
C336     C      0.605600000000     0.714130000000     0.022900000000    -0.066359   
C337     C      0.631250000000     0.856440000000     0.783440000000    -0.0658519  
C338     C      0.612620000000     0.862560000000     0.760100000000     0.0226558  
C339     C      0.593930000000     0.868650000000     0.783350000000    -0.0657078  
C340     C      0.593850000000     0.868480000000     0.828660000000     0.0235414  
C341     C      0.612530000000     0.862510000000     0.851840000000    -0.105127   
C342     C      0.631250000000     0.856550000000     0.828730000000     0.0234321  
C343     C      0.612670000000     0.862570000000     0.711790000000     0.0226284  
C344     C      0.631370000000     0.868650000000     0.688560000000    -0.0656406  
C345     C      0.631460000000     0.868500000000     0.643260000000     0.0234685  
C346     C      0.612770000000     0.862560000000     0.620060000000    -0.105088   
C347     C      0.594050000000     0.856610000000     0.643140000000     0.023475   
C348     C      0.594040000000     0.856480000000     0.688430000000    -0.0658468  
C349     C      0.631400000000     0.868550000000     0.188530000000    -0.0656496  
C350     C      0.612710000000     0.862500000000     0.211790000000     0.0226377  
C351     C      0.594070000000     0.856380000000     0.188470000000    -0.0658214  
C352     C      0.594070000000     0.856460000000     0.143180000000     0.0234596  
C353     C      0.612790000000     0.862380000000     0.120060000000    -0.105065   
C354     C      0.631480000000     0.868350000000     0.143220000000     0.0234589  
C355     C      0.612650000000     0.862560000000     0.260100000000     0.0226493  
C356     C      0.631280000000     0.856480000000     0.283480000000    -0.0657943  
C357     C      0.631280000000     0.856650000000     0.328770000000     0.0234748  
C358     C      0.612560000000     0.862630000000     0.351840000000    -0.105154   
C359     C      0.593880000000     0.868570000000     0.328620000000     0.0235101  
C360     C      0.593970000000     0.868670000000     0.283310000000    -0.0656461  
C361     C      0.594190000000     0.214230000000     0.474960000000    -0.0664232  
C362     C      0.612690000000     0.225770000000     0.488160000000     0.0227729  
C363     C      0.631180000000     0.214240000000     0.501410000000    -0.0664032  
C364     C      0.631250000000     0.191570000000     0.501080000000     0.0238229  
C365     C      0.612690000000     0.179990000000     0.488190000000    -0.105433   
C366     C      0.594120000000     0.191560000000     0.475320000000     0.0238231  
C367     C      0.612700000000     0.249790000000     0.488000000000     0.0227537  
C368     C      0.605770000000     0.261250000000     0.451180000000    -0.0665137  
C369     C      0.605960000000     0.283920000000     0.450860000000     0.0237184  
C370     C      0.612730000000     0.295570000000     0.487630000000    -0.105395   
C371     C      0.619480000000     0.284070000000     0.524590000000     0.023737   
C372     C      0.619640000000     0.261390000000     0.524630000000    -0.0663195  
C373     C      0.631340000000     0.011490000000     0.499430000000    -0.0656484  
C374     C      0.612690000000     0.999870000000     0.487090000000     0.0226318  
C375     C      0.594030000000     0.011560000000     0.475030000000    -0.0656318  
C376     C      0.593990000000     0.034230000000     0.475570000000     0.0234073  
C377     C      0.612690000000     0.045770000000     0.487620000000    -0.105009   
C378     C      0.631390000000     0.034160000000     0.499420000000     0.0234026  
C379     C      0.612680000000     0.975690000000     0.486800000000     0.0226963  
C380     C      0.631340000000     0.964060000000     0.474480000000    -0.0657517  
C381     C      0.631370000000     0.941390000000     0.474500000000     0.0235731  
C382     C      0.612670000000     0.929780000000     0.486280000000    -0.105233   
C383     C      0.593970000000     0.941340000000     0.498310000000     0.0235649  
C384     C      0.594020000000     0.964000000000     0.498850000000    -0.0657537  
C385     C      0.605660000000     0.261060000000     0.951430000000    -0.0663166  
C386     C      0.612580000000     0.249590000000     0.988240000000     0.0225966  
C387     C      0.619500000000     0.261190000000     0.024890000000    -0.0662029  
C388     C      0.619340000000     0.283860000000     0.024870000000     0.0237124  
C389     C      0.612590000000     0.295370000000     0.987900000000    -0.105361   
C390     C      0.605840000000     0.283730000000     0.951120000000     0.0236653  
C391     C      0.612580000000     0.225570000000     0.988360000000     0.0228041  
C392     C      0.594100000000     0.214020000000     0.975130000000    -0.0664441  
C393     C      0.594050000000     0.191350000000     0.975450000000     0.0239104  
C394     C      0.612630000000     0.179790000000     0.988300000000    -0.10567    
C395     C      0.631170000000     0.191380000000     0.001220000000     0.0240164  
C396     C      0.631080000000     0.214050000000     0.001600000000    -0.0664454  
C397     C      0.593960000000     0.106750000000     0.690600000000    -0.0657123  
C398     C      0.612650000000     0.112830000000     0.713850000000     0.0226461  
C399     C      0.631280000000     0.118940000000     0.690500000000    -0.065844   
C400     C      0.631280000000     0.118820000000     0.645210000000     0.0235773  
C401     C      0.612570000000     0.112860000000     0.622110000000    -0.10531    
C402     C      0.593880000000     0.106900000000     0.645300000000     0.0235571  
C403     C      0.612710000000     0.112830000000     0.762160000000     0.0226824  
C404     C      0.594070000000     0.118920000000     0.785520000000    -0.0658925  
C405     C      0.594080000000     0.118790000000     0.830800000000     0.0235835  
C406     C      0.612800000000     0.112840000000     0.853890000000    -0.10531    
C407     C      0.631480000000     0.106900000000     0.830700000000     0.0236547  
C408     C      0.631400000000     0.106750000000     0.785390000000    -0.0657609  
C409     C      0.594110000000     0.118950000000     0.285480000000    -0.0657891  
C410     C      0.612740000000     0.112820000000     0.262160000000     0.0226012  
C411     C      0.631430000000     0.106770000000     0.285430000000    -0.0656113  
C412     C      0.631520000000     0.106980000000     0.330730000000     0.0234545  
C413     C      0.612830000000     0.112960000000     0.353890000000    -0.10517    
C414     C      0.594110000000     0.118890000000     0.330770000000     0.0234614  
C415     C      0.612680000000     0.112750000000     0.213850000000     0.0227179  
C416     C      0.593990000000     0.106640000000     0.190640000000    -0.0658059  
C417     C      0.593910000000     0.106750000000     0.145330000000     0.0236468  
C418     C      0.612590000000     0.112680000000     0.122120000000    -0.105275   
C419     C      0.631310000000     0.118660000000     0.145180000000     0.0235819  
C420     C      0.631320000000     0.118830000000     0.190470000000    -0.0659371  
C421     C      0.594070000000     0.011360000000     0.975010000000    -0.0657178  
C422     C      0.612730000000     0.999670000000     0.987060000000     0.0226308  
C423     C      0.631390000000     0.011300000000     0.999370000000    -0.0656593  
C424     C      0.631430000000     0.033970000000     0.999350000000     0.0234497  
C425     C      0.612730000000     0.045580000000     0.987570000000    -0.105168   
C426     C      0.594030000000     0.034020000000     0.975530000000     0.0235135  
C427     C      0.612730000000     0.975490000000     0.986810000000     0.0227056  
C428     C      0.594070000000     0.963810000000     0.998890000000    -0.0657685  
C429     C      0.594020000000     0.941150000000     0.998370000000     0.0235403  
C430     C      0.612710000000     0.929580000000     0.986330000000    -0.105305   
C431     C      0.631410000000     0.941190000000     0.974520000000     0.0235437  
C432     C      0.631380000000     0.963860000000     0.974490000000    -0.0657109  
C433     C      0.214030000000     0.631390000000     0.472720000000    -0.0663455  
C434     C      0.225580000000     0.612910000000     0.486000000000     0.0227178  
C435     C      0.214050000000     0.594400000000     0.499170000000    -0.0663225  
C436     C      0.191380000000     0.594310000000     0.498780000000     0.0237638  
C437     C      0.179790000000     0.612870000000     0.485900000000    -0.105387   
C438     C      0.191360000000     0.631440000000     0.473020000000     0.0237807  
C439     C      0.249590000000     0.612950000000     0.486220000000     0.0227215  
C440     C      0.261210000000     0.619910000000     0.449620000000    -0.0662673  
C441     C      0.283890000000     0.619790000000     0.449720000000     0.0236981  
C442     C      0.295370000000     0.613060000000     0.486720000000    -0.105365   
C443     C      0.283710000000     0.606270000000     0.523450000000     0.0237025  
C444     C      0.261040000000     0.606040000000     0.523060000000    -0.0664287  
C445     C      0.261150000000     0.619520000000     0.949480000000    -0.0663717  
C446     C      0.249530000000     0.612590000000     0.986090000000     0.0227209  
C447     C      0.260970000000     0.605630000000     0.022910000000    -0.066436   
C448     C      0.283630000000     0.605770000000     0.023260000000     0.0238346  
C449     C      0.295310000000     0.612530000000     0.986520000000    -0.105597   
C450     C      0.283830000000     0.619320000000     0.949550000000     0.0238032  
C451     C      0.225510000000     0.612610000000     0.985900000000     0.0227388  
C452     C      0.214010000000     0.631130000000     0.972670000000    -0.0663316  
C453     C      0.191340000000     0.631240000000     0.973000000000     0.0237351  
C454     C      0.179730000000     0.612700000000     0.985870000000    -0.105266   
C455     C      0.191270000000     0.594110000000     0.998720000000     0.0236955  
C456     C      0.213940000000     0.594140000000     0.999080000000    -0.0663861  
C457     C      0.118730000000     0.631430000000     0.783660000000    -0.0658353  
C458     C      0.112640000000     0.612800000000     0.760280000000     0.0226789  
C459     C      0.106540000000     0.594110000000     0.783490000000    -0.0657583  
C460     C      0.106660000000     0.594020000000     0.828800000000     0.02361    
C461     C      0.112600000000     0.612700000000     0.852020000000    -0.105306   
C462     C      0.118580000000     0.631420000000     0.828950000000     0.0235416  
C463     C      0.112690000000     0.612860000000     0.711970000000     0.0226236  
C464     C      0.106630000000     0.631560000000     0.688720000000    -0.0657145  
C465     C      0.106830000000     0.631650000000     0.643420000000     0.0235244  
C466     C      0.112800000000     0.612970000000     0.620240000000    -0.105078   
C467     C      0.118730000000     0.594240000000     0.643340000000     0.0234012  
C468     C      0.118820000000     0.594230000000     0.688630000000    -0.0658153  
C469     C      0.118770000000     0.631430000000     0.283630000000    -0.0658607  
C470     C      0.112680000000     0.612800000000     0.260290000000     0.0226753  
C471     C      0.106580000000     0.594110000000     0.283520000000    -0.0657092  
C472     C      0.106720000000     0.594030000000     0.328830000000     0.0235764  
C473     C      0.112660000000     0.612720000000     0.352020000000    -0.105311   
C474     C      0.118630000000     0.631430000000     0.328920000000     0.0235595  
C475     C      0.112700000000     0.612850000000     0.211970000000     0.0226926  
C476     C      0.106640000000     0.631540000000     0.188720000000    -0.0657857  
C477     C      0.106810000000     0.631620000000     0.143410000000     0.0236063  
C478     C      0.112760000000     0.612930000000     0.120240000000    -0.10526    
C479     C      0.118700000000     0.594210000000     0.143350000000     0.0235314  
C480     C      0.118810000000     0.594210000000     0.188640000000    -0.0658661  
C481     C      0.761110000000     0.631250000000     0.502290000000    -0.0663289  
C482     C      0.749590000000     0.612760000000     0.489020000000     0.0227563  
C483     C      0.761130000000     0.594260000000     0.475830000000    -0.0664273  
C484     C      0.783800000000     0.594200000000     0.476210000000     0.0237779  
C485     C      0.795370000000     0.612770000000     0.489100000000    -0.105283   
C486     C      0.783780000000     0.631330000000     0.501980000000     0.0237316  
C487     C      0.725570000000     0.612770000000     0.488820000000     0.022769   
C488     C      0.713950000000     0.619710000000     0.525430000000    -0.0663767  
C489     C      0.691280000000     0.619550000000     0.525350000000     0.023779   
C490     C      0.679790000000     0.612810000000     0.488350000000    -0.105447   
C491     C      0.691460000000     0.606050000000     0.451610000000     0.0237655  
C492     C      0.714130000000     0.605850000000     0.451980000000    -0.0664743  
C493     C      0.011370000000     0.594150000000     0.499320000000    -0.065713   
C494     C      0.999670000000     0.612810000000     0.487320000000     0.0226587  
C495     C      0.011280000000     0.631470000000     0.474940000000    -0.0656882  
C496     C      0.033950000000     0.631510000000     0.474860000000     0.0234831  
C497     C      0.045580000000     0.612810000000     0.486610000000    -0.105156   
C498     C      0.034040000000     0.594110000000     0.498700000000     0.0234725  
C499     C      0.975490000000     0.612810000000     0.487710000000     0.0227006  
C500     C      0.963790000000     0.594150000000     0.475700000000    -0.0657496  
C501     C      0.941130000000     0.594100000000     0.476330000000     0.0235408  
C502     C      0.929580000000     0.612800000000     0.488410000000    -0.105192   
C503     C      0.941210000000     0.631500000000     0.500150000000     0.0235433  
C504     C      0.963880000000     0.631470000000     0.500080000000    -0.0657506  
C505     C      0.761030000000     0.631210000000     0.002320000000    -0.0664079  
C506     C      0.749530000000     0.612700000000     0.989050000000     0.0228092  
C507     C      0.761080000000     0.594220000000     0.975870000000    -0.0664859  
C508     C      0.783750000000     0.594170000000     0.976260000000     0.0238667  
C509     C      0.795310000000     0.612750000000     0.989130000000    -0.105474   
C510     C      0.783710000000     0.631300000000     0.002010000000     0.0238353  
C511     C      0.725510000000     0.612700000000     0.988830000000     0.022681   
C512     C      0.713880000000     0.619640000000     0.025430000000    -0.0663051  
C513     C      0.691200000000     0.619470000000     0.025320000000     0.0238014  
C514     C      0.679730000000     0.612710000000     0.988330000000    -0.105437   
C515     C      0.691410000000     0.605950000000     0.951590000000     0.0236997  
C516     C      0.714080000000     0.605770000000     0.951980000000    -0.0664443  
C517     C      0.868440000000     0.631540000000     0.786300000000    -0.0656688  
C518     C      0.862390000000     0.612840000000     0.763040000000     0.0226319  
C519     C      0.856270000000     0.594210000000     0.786380000000    -0.0658651  
C520     C      0.856360000000     0.594220000000     0.831670000000     0.0235673  
C521     C      0.862290000000     0.612940000000     0.854780000000    -0.10531    
C522     C      0.868250000000     0.631630000000     0.831600000000     0.0235736  
C523     C      0.862430000000     0.612780000000     0.714730000000     0.0226874  
C524     C      0.856340000000     0.631420000000     0.691360000000    -0.0659204  
C525     C      0.856500000000     0.631410000000     0.646070000000     0.0235167  
C526     C      0.862480000000     0.612690000000     0.623000000000    -0.105228   
C527     C      0.868420000000     0.594010000000     0.646210000000     0.0235686  
C528     C      0.868540000000     0.594100000000     0.691520000000    -0.065688   
C529     C      0.856340000000     0.631410000000     0.191380000000    -0.0659181  
C530     C      0.862440000000     0.612780000000     0.214730000000     0.0226959  
C531     C      0.868540000000     0.594090000000     0.191500000000    -0.0657458  
C532     C      0.868400000000     0.594010000000     0.146190000000     0.0235547  
C533     C      0.862450000000     0.612700000000     0.123000000000    -0.105225   
C534     C      0.856480000000     0.631410000000     0.146090000000     0.0235695  
C535     C      0.862420000000     0.612830000000     0.263040000000     0.0226638  
C536     C      0.868480000000     0.631520000000     0.286290000000    -0.0657042  
C537     C      0.868310000000     0.631600000000     0.331600000000     0.0235604  
C538     C      0.862350000000     0.612920000000     0.354780000000    -0.105201   
C539     C      0.856420000000     0.594200000000     0.331670000000     0.0235413  
C540     C      0.856310000000     0.594190000000     0.286380000000    -0.0659269  
C541     C      0.963740000000     0.594220000000     0.975670000000    -0.0657787  
C542     C      0.975430000000     0.612880000000     0.987690000000     0.0226361  
C543     C      0.963810000000     0.631540000000     0.000050000000    -0.0656659  
C544     C      0.941140000000     0.631570000000     0.000120000000     0.0235261  
C545     C      0.929520000000     0.612860000000     0.988370000000    -0.105213   
C546     C      0.941070000000     0.594170000000     0.976280000000     0.0235451  
C547     C      0.999610000000     0.612890000000     0.987340000000     0.0227251  
C548     C      0.011300000000     0.594220000000     0.999360000000    -0.0658311  
C549     C      0.033970000000     0.594170000000     0.998740000000     0.0234844  
C550     C      0.045510000000     0.612870000000     0.986660000000    -0.105199   
C551     C      0.033900000000     0.631570000000     0.974920000000     0.0235895  
C552     C      0.011230000000     0.631540000000     0.974980000000    -0.0657657  
C553     C      0.380840000000     0.214530000000     0.498880000000    -0.0663818  
C554     C      0.362340000000     0.226070000000     0.485740000000     0.0227483  
C555     C      0.343850000000     0.214530000000     0.472440000000    -0.0664077  
C556     C      0.343800000000     0.191860000000     0.472680000000     0.023795   
C557     C      0.362370000000     0.180280000000     0.485530000000    -0.105399   
C558     C      0.380930000000     0.191860000000     0.498430000000     0.0237937  
C559     C      0.362300000000     0.250090000000     0.486010000000     0.0227394  
C560     C      0.369230000000     0.261510000000     0.522870000000    -0.0664252  
C561     C      0.369050000000     0.284180000000     0.523290000000     0.0236714  
C562     C      0.362270000000     0.295870000000     0.486580000000    -0.105391   
C563     C      0.355490000000     0.284400000000     0.449580000000     0.0237337  
C564     C      0.355330000000     0.261730000000     0.449450000000    -0.0663436  
C565     C      0.381120000000     0.213790000000     0.998480000000    -0.0663993  
C566     C      0.362640000000     0.225360000000     0.985280000000     0.022732   
C567     C      0.344130000000     0.213860000000     0.972040000000    -0.0663114  
C568     C      0.344020000000     0.191180000000     0.972400000000     0.023694   
C569     C      0.362560000000     0.179580000000     0.985300000000    -0.105271   
C570     C      0.381150000000     0.191120000000     0.998140000000     0.0237334  
C571     C      0.362660000000     0.249370000000     0.985460000000     0.0227379  
C572     C      0.369590000000     0.260810000000     0.022300000000    -0.066441   
C573     C      0.369410000000     0.283480000000     0.022670000000     0.0238258  
C574     C      0.362650000000     0.295150000000     0.985920000000    -0.105585   
C575     C      0.355910000000     0.283670000000     0.948920000000     0.0238055  
C576     C      0.355740000000     0.260990000000     0.948840000000    -0.0663789  
C577     C      0.381090000000     0.106570000000     0.782980000000    -0.0657361  
C578     C      0.362400000000     0.112720000000     0.759820000000     0.0226237  
C579     C      0.343770000000     0.118750000000     0.783260000000    -0.0657533  
C580     C      0.343780000000     0.118500000000     0.828540000000     0.0234794  
C581     C      0.362510000000     0.112490000000     0.851560000000    -0.105278   
C582     C      0.381180000000     0.106590000000     0.828290000000     0.0236176  
C583     C      0.362340000000     0.112880000000     0.711510000000     0.0227025  
C584     C      0.380960000000     0.119070000000     0.688230000000    -0.0658779  
C585     C      0.380960000000     0.119080000000     0.642940000000     0.0235393  
C586     C      0.362240000000     0.113190000000     0.619780000000    -0.105318   
C587     C      0.343560000000     0.107170000000     0.642900000000     0.0236442  
C588     C      0.343640000000     0.106870000000     0.688210000000    -0.065788   
C589     C      0.381100000000     0.118910000000     0.188120000000    -0.0658377  
C590     C      0.362460000000     0.112850000000     0.211510000000     0.0226745  
C591     C      0.343770000000     0.106750000000     0.188310000000    -0.0657413  
C592     C      0.343690000000     0.106820000000     0.143010000000     0.0236453  
C593     C      0.362370000000     0.112730000000     0.119780000000    -0.10524    
C594     C      0.381100000000     0.118710000000     0.142830000000     0.0234797  
C595     C      0.362510000000     0.112940000000     0.259830000000     0.0226395  
C596     C      0.381190000000     0.106890000000     0.283120000000    -0.0656639  
C597     C      0.381270000000     0.107110000000     0.328420000000     0.0235218  
C598     C      0.362580000000     0.113100000000     0.351560000000    -0.105159   
C599     C      0.343860000000     0.119030000000     0.328410000000     0.0234015  
C600     C      0.343870000000     0.119090000000     0.283120000000    -0.0658219  
C601     C      0.369400000000     0.714620000000     0.452130000000    -0.0663889  
C602     C      0.362470000000     0.726060000000     0.488970000000     0.0226941  
C603     C      0.355530000000     0.714430000000     0.525570000000    -0.0663309  
C604     C      0.355690000000     0.691760000000     0.525470000000     0.0237811  
C605     C      0.362450000000     0.680280000000     0.488480000000    -0.105422   
C606     C      0.369220000000     0.691950000000     0.451750000000     0.023723   
C607     C      0.362480000000     0.750080000000     0.489180000000     0.0228053  
C608     C      0.380980000000     0.761620000000     0.476020000000    -0.0664016  
C609     C      0.381040000000     0.784290000000     0.476390000000     0.0238326  
C610     C      0.362470000000     0.795850000000     0.489240000000    -0.105336   
C611     C      0.343910000000     0.784270000000     0.502110000000     0.0238239  
C612     C      0.343980000000     0.761600000000     0.502420000000    -0.0664679  
C613     C      0.343780000000     0.964370000000     0.499840000000    -0.065613   
C614     C      0.362440000000     0.975980000000     0.487470000000     0.022626   
C615     C      0.381110000000     0.964260000000     0.475540000000    -0.065738   
C616     C      0.381150000000     0.941600000000     0.476240000000     0.0235592  
C617     C      0.362450000000     0.930070000000     0.488320000000    -0.105168   
C618     C      0.343740000000     0.941700000000     0.499990000000     0.0234515  
C619     C      0.362440000000     0.000150000000     0.487000000000     0.0226626  
C620     C      0.343790000000     0.011750000000     0.474560000000    -0.0656879  
C621     C      0.343750000000     0.034430000000     0.474420000000     0.0234804  
C622     C      0.362440000000     0.046060000000     0.486170000000    -0.105126   
C623     C      0.381140000000     0.034530000000     0.498310000000     0.0234419  
C624     C      0.381090000000     0.011870000000     0.499000000000    -0.0656483  
C625     C      0.344040000000     0.760890000000     0.002390000000    -0.066315   
C626     C      0.362530000000     0.749380000000     0.989090000000     0.022698   
C627     C      0.381020000000     0.760940000000     0.975890000000    -0.066348   
C628     C      0.381070000000     0.783610000000     0.976290000000     0.0237911  
C629     C      0.362500000000     0.795160000000     0.989180000000    -0.105304   
C630     C      0.343950000000     0.783570000000     0.002090000000     0.0237351  
C631     C      0.362530000000     0.725360000000     0.988860000000     0.0227015  
C632     C      0.355600000000     0.713730000000     0.025450000000    -0.0662786  
C633     C      0.355750000000     0.691050000000     0.025330000000     0.0237667  
C634     C      0.362490000000     0.679580000000     0.988320000000    -0.105419   
C635     C      0.369260000000     0.691260000000     0.951590000000     0.0236843  
C636     C      0.369450000000     0.713930000000     0.952000000000    -0.0664043  
C637     C      0.343660000000     0.868530000000     0.786410000000    -0.0656743  
C638     C      0.362350000000     0.862530000000     0.763100000000     0.0226683  
C639     C      0.380980000000     0.856340000000     0.786370000000    -0.0658531  
C640     C      0.380980000000     0.856330000000     0.831660000000     0.0235152  
C641     C      0.362260000000     0.862220000000     0.854830000000    -0.105272   
C642     C      0.343570000000     0.868240000000     0.831710000000     0.0235299  
C643     C      0.362410000000     0.862690000000     0.714780000000     0.0226249  
C644     C      0.343770000000     0.856660000000     0.691360000000    -0.0657863  
C645     C      0.343780000000     0.856910000000     0.646070000000     0.0233776  
C646     C      0.362510000000     0.862920000000     0.623050000000    -0.105049   
C647     C      0.381190000000     0.868810000000     0.646310000000     0.0234646  
C648     C      0.381090000000     0.868840000000     0.691620000000    -0.0656191  
C649     C      0.381100000000     0.856560000000     0.286490000000    -0.0658294  
C650     C      0.362470000000     0.862620000000     0.263090000000     0.0226305  
C651     C      0.343780000000     0.868730000000     0.286290000000    -0.06566    
C652     C      0.343680000000     0.868640000000     0.331590000000     0.0235419  
C653     C      0.362370000000     0.862730000000     0.354830000000    -0.105313   
C654     C      0.381090000000     0.856760000000     0.331780000000     0.0235741  
C655     C      0.362520000000     0.862540000000     0.214780000000     0.0226967  
C656     C      0.381210000000     0.868590000000     0.191500000000    -0.0657597  
C657     C      0.381280000000     0.868370000000     0.146190000000     0.0236024  
C658     C      0.362600000000     0.862380000000     0.123050000000    -0.105143   
C659     C      0.343890000000     0.856440000000     0.146190000000     0.0234999  
C660     C      0.343890000000     0.856390000000     0.191480000000    -0.0658918  
C661     C      0.381040000000     0.011170000000     0.999100000000    -0.0656877  
C662     C      0.362370000000     0.999460000000     0.987150000000     0.022608   
C663     C      0.343710000000     0.011070000000     0.974780000000    -0.0656459  
C664     C      0.343680000000     0.033740000000     0.974650000000     0.0234182  
C665     C      0.362390000000     0.045370000000     0.986330000000    -0.105001   
C666     C      0.381090000000     0.033830000000     0.998420000000     0.023383   
C667     C      0.362370000000     0.975290000000     0.987570000000     0.0226899  
C668     C      0.381030000000     0.963590000000     0.975550000000    -0.065789   
C669     C      0.381080000000     0.940920000000     0.976220000000     0.0235779  
C670     C      0.362400000000     0.929380000000     0.988370000000    -0.105209   
C671     C      0.343690000000     0.941010000000     0.000120000000     0.0234672  
C672     C      0.343730000000     0.963680000000     0.000000000000    -0.0656816  
Cu1      Cu     0.342340000000     0.862250000000     0.989170000000     0.839565   
Cu2      Cu     0.382530000000     0.862280000000     0.988700000000     0.839522   
Cu3      Cu     0.342350000000     0.862950000000     0.489110000000     0.839625   
Cu4      Cu     0.382540000000     0.862950000000     0.488770000000     0.839707   
Cu5      Cu     0.342360000000     0.112510000000     0.985500000000     0.839504   
Cu6      Cu     0.382540000000     0.112460000000     0.985840000000     0.839533   
Cu7      Cu     0.342310000000     0.113170000000     0.485430000000     0.83949    
Cu8      Cu     0.382490000000     0.113190000000     0.485900000000     0.839584   
Cu9      Cu     0.862390000000     0.632910000000     0.989090000000     0.839416   
Cu10     Cu     0.862420000000     0.592730000000     0.988680000000     0.839618   
Cu11     Cu     0.862460000000     0.632890000000     0.489090000000     0.839563   
Cu12     Cu     0.862470000000     0.592710000000     0.488690000000     0.83957    
Cu13     Cu     0.112650000000     0.632900000000     0.985930000000     0.839672   
Cu14     Cu     0.112610000000     0.592710000000     0.986330000000     0.839815   
Cu15     Cu     0.112690000000     0.632940000000     0.485920000000     0.839556   
Cu16     Cu     0.112700000000     0.592750000000     0.486340000000     0.839797   
Cu17     Cu     0.592600000000     0.112680000000     0.987810000000     0.839543   
Cu18     Cu     0.632780000000     0.112710000000     0.988200000000     0.839551   
Cu19     Cu     0.592600000000     0.112890000000     0.487790000000     0.839731   
Cu20     Cu     0.632790000000     0.112890000000     0.488220000000     0.839756   
Cu21     Cu     0.592570000000     0.862480000000     0.986160000000     0.83953    
Cu22     Cu     0.632750000000     0.862450000000     0.985730000000     0.839498   
Cu23     Cu     0.592570000000     0.862670000000     0.486140000000     0.839655   
Cu24     Cu     0.632760000000     0.862660000000     0.485750000000     0.839548   
Cu25     Cu     0.362290000000     0.362420000000     0.946730000000     0.839631   
Cu26     Cu     0.362570000000     0.362060000000     0.027020000000     0.839668   
Cu27     Cu     0.362260000000     0.363140000000     0.447310000000     0.839784   
Cu28     Cu     0.362670000000     0.362810000000     0.527600000000     0.839808   
Cu29     Cu     0.362240000000     0.612300000000     0.027480000000     0.839757   
Cu30     Cu     0.362560000000     0.612670000000     0.947180000000     0.839643   
Cu31     Cu     0.362300000000     0.613020000000     0.527750000000     0.839826   
Cu32     Cu     0.362640000000     0.613350000000     0.447460000000     0.839658   
Cu33     Cu     0.612800000000     0.362610000000     0.027360000000     0.839691   
Cu34     Cu     0.612510000000     0.362320000000     0.947060000000     0.839878   
Cu35     Cu     0.612520000000     0.362540000000     0.446830000000     0.839742   
Cu36     Cu     0.612870000000     0.362800000000     0.527130000000     0.839707   
Cu37     Cu     0.612800000000     0.612530000000     0.947280000000     0.839858   
Cu38     Cu     0.612460000000     0.612860000000     0.027570000000     0.839487   
Cu39     Cu     0.612850000000     0.612740000000     0.447380000000     0.839756   
Cu40     Cu     0.612540000000     0.613050000000     0.527680000000     0.839704   
Cu41     Cu     0.112410000000     0.342650000000     0.988970000000     0.839582   
Cu42     Cu     0.112890000000     0.382830000000     0.988520000000     0.839665   
Cu43     Cu     0.112450000000     0.382890000000     0.488570000000     0.839825   
Cu44     Cu     0.112930000000     0.342700000000     0.488920000000     0.839686   
Cu45     Cu     0.862520000000     0.342850000000     0.985680000000     0.839936   
Cu46     Cu     0.862350000000     0.383040000000     0.986100000000     0.839218   
Cu47     Cu     0.862390000000     0.342430000000     0.485690000000     0.83937    
Cu48     Cu     0.862550000000     0.382610000000     0.486100000000     0.839943   
H1       H      0.873550000000     0.396040000000     0.766340000000     0.0464677  
H2       H      0.873110000000     0.396330000000     0.845250000000     0.0350635  
H3       H      0.851570000000     0.329660000000     0.845780000000     0.0348049  
H4       H      0.851060000000     0.329600000000     0.766960000000     0.046383   
H5       H      0.873530000000     0.329440000000     0.705400000000     0.046499   
H6       H      0.873010000000     0.329140000000     0.626510000000     0.0350855  
H7       H      0.851420000000     0.395800000000     0.626040000000     0.0348095  
H8       H      0.850990000000     0.395860000000     0.704880000000     0.0463634  
H9       H      0.851310000000     0.329510000000     0.266600000000     0.0463306  
H10      H      0.851800000000     0.329370000000     0.345440000000     0.0348063  
H11      H      0.873420000000     0.396020000000     0.345570000000     0.0351098  
H12      H      0.873870000000     0.395930000000     0.266680000000     0.0465219  
H13      H      0.851240000000     0.395940000000     0.205250000000     0.0463933  
H14      H      0.851610000000     0.396080000000     0.126400000000     0.0347874  
H15      H      0.873270000000     0.329440000000     0.126170000000     0.0351266  
H16      H      0.873830000000     0.329530000000     0.205040000000     0.0464716  
H17      H      0.972200000000     0.395250000000     0.510130000000     0.0464611  
H18      H      0.932750000000     0.395490000000     0.508660000000     0.0350653  
H19      H      0.932690000000     0.328950000000     0.464750000000     0.0350832  
H20      H      0.972180000000     0.328950000000     0.464310000000     0.0464694  
H21      H      0.002990000000     0.328800000000     0.509410000000     0.0465024  
H22      H      0.042490000000     0.328800000000     0.508930000000     0.0350573  
H23      H      0.042390000000     0.395590000000     0.466630000000     0.03483    
H24      H      0.002960000000     0.395370000000     0.465210000000     0.046422   
H25      H      0.123760000000     0.329550000000     0.707850000000     0.0463548  
H26      H      0.123300000000     0.329520000000     0.629020000000     0.0347937  
H27      H      0.101730000000     0.396180000000     0.629240000000     0.0350788  
H28      H      0.101240000000     0.395980000000     0.708130000000     0.0464599  
H29      H      0.123820000000     0.395890000000     0.769570000000     0.0464343  
H30      H      0.123440000000     0.395940000000     0.848410000000     0.0347292  
H31      H      0.101840000000     0.329280000000     0.848320000000     0.0350362  
H32      H      0.101280000000     0.329470000000     0.769430000000     0.0465394  
H33      H      0.124070000000     0.396050000000     0.208010000000     0.0464199  
H34      H      0.123480000000     0.396220000000     0.129120000000     0.0351073  
H35      H      0.101880000000     0.329560000000     0.129140000000     0.0348661  
H36      H      0.101520000000     0.329630000000     0.207980000000     0.0464322  
H37      H      0.101590000000     0.396000000000     0.269600000000     0.0464091  
H38      H      0.102060000000     0.396050000000     0.348430000000     0.0348426  
H39      H      0.123660000000     0.329390000000     0.348290000000     0.0350779  
H40      H      0.124130000000     0.329570000000     0.269390000000     0.0464198  
H41      H      0.971960000000     0.396560000000     0.009800000000     0.0465488  
H42      H      0.932490000000     0.396560000000     0.008140000000     0.0351356  
H43      H      0.932890000000     0.330010000000     0.964320000000     0.0350297  
H44      H      0.972350000000     0.330250000000     0.964090000000     0.0464944  
H45      H      0.002750000000     0.330160000000     0.010020000000     0.0464765  
H46      H      0.042200000000     0.329950000000     0.009820000000     0.034827   
H47      H      0.042590000000     0.396730000000     0.967390000000     0.0350528  
H48      H      0.003110000000     0.396710000000     0.965690000000     0.0464817  
H49      H      0.722410000000     0.350680000000     0.420020000000     0.0474168  
H50      H      0.682750000000     0.350730000000     0.420270000000     0.0349786  
H51      H      0.683090000000     0.374910000000     0.551760000000     0.034633   
H52      H      0.722730000000     0.375080000000     0.551140000000     0.0473178  
H53      H      0.752650000000     0.395860000000     0.508710000000     0.0473514  
H54      H      0.792310000000     0.395870000000     0.508520000000     0.0346394  
H55      H      0.792170000000     0.329700000000     0.462220000000     0.0346097  
H56      H      0.752520000000     0.329870000000     0.462000000000     0.0473393  
H57      H      0.623910000000     0.503300000000     0.421120000000     0.046376   
H58      H      0.623490000000     0.542750000000     0.421230000000     0.0348227  
H59      H      0.601970000000     0.542540000000     0.554470000000     0.0350417  
H60      H      0.601430000000     0.503050000000     0.553900000000     0.0465052  
H61      H      0.623910000000     0.472250000000     0.553530000000     0.0464004  
H62      H      0.623480000000     0.432800000000     0.553390000000     0.0348     
H63      H      0.601920000000     0.433040000000     0.420170000000     0.0350042  
H64      H      0.601390000000     0.472530000000     0.420780000000     0.0465174  
H65      H      0.722660000000     0.374710000000     0.051700000000     0.0472814  
H66      H      0.683010000000     0.374560000000     0.052210000000     0.0346667  
H67      H      0.682750000000     0.350360000000     0.920730000000     0.0349851  
H68      H      0.722420000000     0.350300000000     0.920590000000     0.047388   
H69      H      0.752620000000     0.329590000000     0.962580000000     0.0472831  
H70      H      0.792290000000     0.329600000000     0.962710000000     0.0345674  
H71      H      0.792130000000     0.395770000000     0.008990000000     0.0347133  
H72      H      0.752480000000     0.395580000000     0.009280000000     0.0474243  
H73      H      0.601470000000     0.502860000000     0.053930000000     0.0464738  
H74      H      0.601980000000     0.542350000000     0.054450000000     0.0350162  
H75      H      0.623570000000     0.542530000000     0.921250000000     0.0348065  
H76      H      0.624020000000     0.503090000000     0.921200000000     0.0463849  
H77      H      0.601520000000     0.472310000000     0.920840000000     0.0464925  
H78      H      0.602030000000     0.432820000000     0.920290000000     0.0350175  
H79      H      0.623510000000     0.432610000000     0.053560000000     0.0347999  
H80      H      0.623960000000     0.472060000000     0.053640000000     0.0463773  
H81      H      0.502840000000     0.601890000000     0.421050000000     0.0464832  
H82      H      0.542330000000     0.602320000000     0.420530000000     0.0350193  
H83      H      0.542550000000     0.623820000000     0.553790000000     0.0348054  
H84      H      0.503110000000     0.624350000000     0.553850000000     0.0463692  
H85      H      0.472280000000     0.601920000000     0.554130000000     0.0465201  
H86      H      0.432790000000     0.602500000000     0.554650000000     0.0349976  
H87      H      0.432650000000     0.624080000000     0.421440000000     0.0347844  
H88      H      0.472100000000     0.624460000000     0.421390000000     0.0464205  
H89      H      0.472230000000     0.601270000000     0.053840000000     0.0464873  
H90      H      0.432740000000     0.601750000000     0.054330000000     0.0350358  
H91      H      0.432570000000     0.623310000000     0.921110000000     0.0348187  
H92      H      0.472020000000     0.623790000000     0.921090000000     0.0463539  
H93      H      0.502840000000     0.601340000000     0.920810000000     0.0465112  
H94      H      0.542330000000     0.601930000000     0.920340000000     0.0349989  
H95      H      0.542430000000     0.623450000000     0.053580000000     0.0347695  
H96      H      0.502980000000     0.623820000000     0.053580000000     0.0464304  
H97      H      0.252410000000     0.375720000000     0.423600000000     0.0473652  
H98      H      0.292060000000     0.375410000000     0.422830000000     0.0346619  
H99      H      0.292420000000     0.351480000000     0.554510000000     0.0350178  
H100     H      0.252770000000     0.351610000000     0.554920000000     0.0474044  
H101     H      0.222710000000     0.330730000000     0.513350000000     0.0472287  
H102     H      0.183080000000     0.330460000000     0.513110000000     0.0346685  
H103     H      0.182750000000     0.396450000000     0.465810000000     0.03495    
H104     H      0.222430000000     0.396550000000     0.465670000000     0.0473728  
H105     H      0.503060000000     0.351340000000     0.420820000000     0.0463867  
H106     H      0.542510000000     0.351790000000     0.420820000000     0.0348206  
H107     H      0.542380000000     0.373250000000     0.554100000000     0.0350262  
H108     H      0.502890000000     0.373760000000     0.553640000000     0.0465027  
H109     H      0.472100000000     0.351280000000     0.553330000000     0.0463584  
H110     H      0.432650000000     0.351800000000     0.553370000000     0.0348265  
H111     H      0.432780000000     0.373410000000     0.420190000000     0.0350327  
H112     H      0.472280000000     0.373850000000     0.420610000000     0.0464771  
H113     H      0.351380000000     0.472600000000     0.421280000000     0.0464362  
H114     H      0.351810000000     0.433160000000     0.421280000000     0.0347904  
H115     H      0.373430000000     0.433280000000     0.554460000000     0.0350126  
H116     H      0.373940000000     0.472780000000     0.554000000000     0.0464984  
H117     H      0.351390000000     0.503530000000     0.553780000000     0.046386   
H118     H      0.351750000000     0.542980000000     0.553780000000     0.034805   
H119     H      0.373260000000     0.542890000000     0.420530000000     0.0350437  
H120     H      0.373850000000     0.503400000000     0.420990000000     0.0464812  
H121     H      0.252710000000     0.349770000000     0.053570000000     0.0474475  
H122     H      0.292380000000     0.349970000000     0.053420000000     0.0349937  
H123     H      0.292030000000     0.373900000000     0.921740000000     0.034665   
H124     H      0.252390000000     0.373880000000     0.922240000000     0.0472997  
H125     H      0.222650000000     0.394830000000     0.964370000000     0.047268   
H126     H      0.183020000000     0.395110000000     0.964830000000     0.0347181  
H127     H      0.182740000000     0.329120000000     0.012140000000     0.0349218  
H128     H      0.222420000000     0.329010000000     0.012060000000     0.0473021  
H129     H      0.472050000000     0.351180000000     0.053260000000     0.0463907  
H130     H      0.432600000000     0.351570000000     0.053190000000     0.0347883  
H131     H      0.432760000000     0.373170000000     0.920000000000     0.0350349  
H132     H      0.472260000000     0.373740000000     0.920530000000     0.0464697  
H133     H      0.503050000000     0.351260000000     0.920800000000     0.0463806  
H134     H      0.542500000000     0.351690000000     0.920870000000     0.0348114  
H135     H      0.542310000000     0.373160000000     0.054140000000     0.0350468  
H136     H      0.502820000000     0.373690000000     0.053610000000     0.0464729  
H137     H      0.350970000000     0.502840000000     0.053350000000     0.0463619  
H138     H      0.351460000000     0.542290000000     0.053390000000     0.0347945  
H139     H      0.373000000000     0.542160000000     0.920160000000     0.0350285  
H140     H      0.373460000000     0.502670000000     0.920590000000     0.0464767  
H141     H      0.350960000000     0.471890000000     0.920820000000     0.0463653  
H142     H      0.351420000000     0.432440000000     0.920790000000     0.0347971  
H143     H      0.372920000000     0.432550000000     0.054040000000     0.0350363  
H144     H      0.373430000000     0.472040000000     0.053610000000     0.0464951  
H145     H      0.645650000000     0.752760000000     0.462670000000     0.0472886  
H146     H      0.645740000000     0.792420000000     0.462730000000     0.0346268  
H147     H      0.579560000000     0.792460000000     0.508960000000     0.034676   
H148     H      0.579650000000     0.752810000000     0.509300000000     0.0474049  
H149     H      0.600450000000     0.722940000000     0.551800000000     0.0473014  
H150     H      0.600580000000     0.683290000000     0.552410000000     0.0346233  
H151     H      0.624820000000     0.682940000000     0.420960000000     0.0349893  
H152     H      0.624890000000     0.722610000000     0.420720000000     0.0474261  
H153     H      0.579540000000     0.752630000000     0.009160000000     0.0473802  
H154     H      0.579490000000     0.792290000000     0.008870000000     0.034725   
H155     H      0.645670000000     0.792200000000     0.962650000000     0.0346078  
H156     H      0.645540000000     0.752540000000     0.962530000000     0.0473188  
H157     H      0.624770000000     0.722410000000     0.920560000000     0.0473733  
H158     H      0.624680000000     0.682740000000     0.920800000000     0.0349894  
H159     H      0.600420000000     0.683090000000     0.052230000000     0.0346415  
H160     H      0.600310000000     0.722740000000     0.051630000000     0.0473066  
H161     H      0.579400000000     0.873840000000     0.766600000000     0.046494   
H162     H      0.579210000000     0.873320000000     0.845500000000     0.0350909  
H163     H      0.645860000000     0.851690000000     0.845630000000     0.0348192  
H164     H      0.645810000000     0.851260000000     0.766790000000     0.0463862  
H165     H      0.645910000000     0.873820000000     0.705320000000     0.0464614  
H166     H      0.646100000000     0.873340000000     0.626430000000     0.0351268  
H167     H      0.579430000000     0.851770000000     0.626230000000     0.034793   
H168     H      0.579470000000     0.851310000000     0.705070000000     0.0463794  
H169     H      0.579500000000     0.851230000000     0.205140000000     0.0463751  
H170     H      0.579450000000     0.851600000000     0.126290000000     0.0348058  
H171     H      0.646120000000     0.873170000000     0.126360000000     0.0351394  
H172     H      0.645940000000     0.873750000000     0.205250000000     0.0464684  
H173     H      0.645850000000     0.851280000000     0.266850000000     0.0463442  
H174     H      0.645900000000     0.851810000000     0.345690000000     0.0348054  
H175     H      0.579240000000     0.873430000000     0.345440000000     0.0350904  
H176     H      0.579430000000     0.873840000000     0.266540000000     0.0464567  
H177     H      0.645690000000     0.222780000000     0.511480000000     0.0472848  
H178     H      0.645780000000     0.183120000000     0.511310000000     0.0346171  
H179     H      0.579600000000     0.183110000000     0.465090000000     0.0346799  
H180     H      0.579690000000     0.222760000000     0.464850000000     0.0473903  
H181     H      0.600480000000     0.252670000000     0.422440000000     0.047365   
H182     H      0.600590000000     0.292310000000     0.421940000000     0.0346353  
H183     H      0.624850000000     0.292580000000     0.553370000000     0.0349991  
H184     H      0.624940000000     0.252910000000     0.553510000000     0.0473967  
H185     H      0.579480000000     0.003230000000     0.464560000000     0.0464411  
H186     H      0.579370000000     0.042700000000     0.465950000000     0.0351269  
H187     H      0.646010000000     0.042570000000     0.509210000000     0.0351175  
H188     H      0.645890000000     0.003100000000     0.509690000000     0.0464529  
H189     H      0.645890000000     0.972450000000     0.464230000000     0.0464837  
H190     H      0.646000000000     0.932970000000     0.464730000000     0.0350763  
H191     H      0.579340000000     0.932870000000     0.507920000000     0.0350837  
H192     H      0.579470000000     0.972330000000     0.509300000000     0.0464786  
H193     H      0.624790000000     0.252700000000     0.053770000000     0.0473717  
H194     H      0.624700000000     0.292370000000     0.053660000000     0.0350053  
H195     H      0.600480000000     0.292120000000     0.922190000000     0.0346548  
H196     H      0.600370000000     0.252470000000     0.922660000000     0.0472608  
H197     H      0.579590000000     0.222550000000     0.965030000000     0.0473685  
H198     H      0.579540000000     0.182890000000     0.965190000000     0.034656   
H199     H      0.645710000000     0.182940000000     0.011440000000     0.0345872  
H200     H      0.645580000000     0.222600000000     0.011690000000     0.0473141  
H201     H      0.645850000000     0.124120000000     0.707150000000     0.0463535  
H202     H      0.645900000000     0.123680000000     0.628320000000     0.0347598  
H203     H      0.579250000000     0.102060000000     0.628450000000     0.0350822  
H204     H      0.579430000000     0.101560000000     0.707350000000     0.0464946  
H205     H      0.579500000000     0.124090000000     0.768870000000     0.0463844  
H206     H      0.579460000000     0.123630000000     0.847710000000     0.034761   
H207     H      0.646130000000     0.102060000000     0.847530000000     0.0350695  
H208     H      0.645940000000     0.101580000000     0.768640000000     0.0464967  
H209     H      0.645970000000     0.101570000000     0.268700000000     0.0464489  
H210     H      0.646150000000     0.102160000000     0.347590000000     0.0351246  
H211     H      0.579490000000     0.123750000000     0.347650000000     0.0347938  
H212     H      0.579540000000     0.124110000000     0.268810000000     0.0463563  
H213     H      0.579460000000     0.101480000000     0.207410000000     0.046536   
H214     H      0.579270000000     0.101890000000     0.128520000000     0.0350626  
H215     H      0.645930000000     0.123500000000     0.128260000000     0.0347806  
H216     H      0.645880000000     0.124030000000     0.207090000000     0.0464113  
H217     H      0.645950000000     0.002910000000     0.009630000000     0.0464665  
H218     H      0.646060000000     0.042390000000     0.009120000000     0.0351362  
H219     H      0.579400000000     0.042490000000     0.965930000000     0.0351053  
H220     H      0.579520000000     0.003030000000     0.964560000000     0.046464   
H221     H      0.579520000000     0.972150000000     0.009350000000     0.0465024  
H222     H      0.579390000000     0.932690000000     0.007990000000     0.0351324  
H223     H      0.646030000000     0.932770000000     0.964740000000     0.0350725  
H224     H      0.645940000000     0.972240000000     0.964220000000     0.046444   
H225     H      0.222590000000     0.579900000000     0.509300000000     0.0473498  
H226     H      0.182940000000     0.579780000000     0.509010000000     0.0346968  
H227     H      0.182900000000     0.645960000000     0.462790000000     0.0346462  
H228     H      0.222560000000     0.645910000000     0.462670000000     0.0472724  
H229     H      0.252740000000     0.625190000000     0.420710000000     0.0473827  
H230     H      0.292400000000     0.625180000000     0.420970000000     0.0349983  
H231     H      0.292090000000     0.600920000000     0.552400000000     0.0346482  
H232     H      0.252440000000     0.600730000000     0.551780000000     0.0473265  
H233     H      0.252360000000     0.600340000000     0.051640000000     0.047319   
H234     H      0.292010000000     0.600390000000     0.052190000000     0.0346163  
H235     H      0.292350000000     0.624680000000     0.920780000000     0.0349769  
H236     H      0.252690000000     0.624830000000     0.920590000000     0.0474139  
H237     H      0.222580000000     0.645630000000     0.962620000000     0.0472544  
H238     H      0.182920000000     0.645790000000     0.962790000000     0.0346281  
H239     H      0.182790000000     0.579600000000     0.008940000000     0.0347399  
H240     H      0.222440000000     0.579610000000     0.009180000000     0.0473654  
H241     H      0.101370000000     0.579580000000     0.766720000000     0.0465081  
H242     H      0.101800000000     0.579380000000     0.845620000000     0.035058   
H243     H      0.123420000000     0.646040000000     0.845870000000     0.0347896  
H244     H      0.123930000000     0.646000000000     0.767030000000     0.0463496  
H245     H      0.101440000000     0.646090000000     0.705460000000     0.0465009  
H246     H      0.102000000000     0.646290000000     0.626570000000     0.0351164  
H247     H      0.123590000000     0.579630000000     0.626450000000     0.0348146  
H248     H      0.123970000000     0.579660000000     0.705290000000     0.0463774  
H249     H      0.101410000000     0.579570000000     0.266770000000     0.0464862  
H250     H      0.101870000000     0.579400000000     0.345670000000     0.0350726  
H251     H      0.123480000000     0.646050000000     0.345820000000     0.0347689  
H252     H      0.123960000000     0.646000000000     0.266990000000     0.0463594  
H253     H      0.101450000000     0.646070000000     0.205450000000     0.04653    
H254     H      0.101980000000     0.646260000000     0.126570000000     0.0350869  
H255     H      0.123550000000     0.579590000000     0.126450000000     0.0347686  
H256     H      0.123970000000     0.579640000000     0.205300000000     0.0463793  
H257     H      0.752610000000     0.579760000000     0.465700000000     0.0473964  
H258     H      0.792260000000     0.579680000000     0.465980000000     0.0347015  
H259     H      0.792230000000     0.645860000000     0.512230000000     0.0346539  
H260     H      0.752560000000     0.645760000000     0.512360000000     0.0472556  
H261     H      0.722420000000     0.624990000000     0.554330000000     0.0474186  
H262     H      0.682760000000     0.624930000000     0.554110000000     0.0349784  
H263     H      0.683080000000     0.600690000000     0.422660000000     0.0346278  
H264     H      0.722730000000     0.600560000000     0.423240000000     0.0473287  
H265     H      0.002880000000     0.646020000000     0.464710000000     0.0464627  
H266     H      0.042350000000     0.646140000000     0.465050000000     0.0350938  
H267     H      0.042520000000     0.579490000000     0.508280000000     0.035097   
H268     H      0.003060000000     0.579600000000     0.509820000000     0.046465   
H269     H      0.972110000000     0.579600000000     0.465220000000     0.0464713  
H270     H      0.932650000000     0.579470000000     0.466750000000     0.0350955  
H271     H      0.932800000000     0.646130000000     0.509960000000     0.0350777  
H272     H      0.972280000000     0.646020000000     0.510300000000     0.0464831  
H273     H      0.752570000000     0.579710000000     0.965740000000     0.0473929  
H274     H      0.792220000000     0.579650000000     0.966030000000     0.034673   
H275     H      0.792140000000     0.645830000000     0.012250000000     0.0346366  
H276     H      0.752480000000     0.645710000000     0.012370000000     0.0473248  
H277     H      0.722340000000     0.624930000000     0.054330000000     0.0474179  
H278     H      0.682670000000     0.624830000000     0.054080000000     0.0349867  
H279     H      0.683040000000     0.600580000000     0.922640000000     0.0346442  
H280     H      0.722690000000     0.600480000000     0.923260000000     0.0473274  
H281     H      0.851110000000     0.579640000000     0.769720000000     0.0463808  
H282     H      0.851500000000     0.579600000000     0.848560000000     0.0347626  
H283     H      0.873080000000     0.646270000000     0.848450000000     0.0350996  
H284     H      0.873630000000     0.646080000000     0.769560000000     0.0464629  
H285     H      0.851150000000     0.645980000000     0.707980000000     0.0464145  
H286     H      0.851660000000     0.646020000000     0.629150000000     0.03479    
H287     H      0.873280000000     0.579370000000     0.629390000000     0.0350762  
H288     H      0.873710000000     0.579560000000     0.708290000000     0.0464682  
H289     H      0.873720000000     0.579560000000     0.208250000000     0.0465166  
H290     H      0.873260000000     0.579380000000     0.129350000000     0.0350932  
H291     H      0.851630000000     0.646030000000     0.129190000000     0.0347808  
H292     H      0.851150000000     0.645970000000     0.208020000000     0.0464044  
H293     H      0.873670000000     0.646060000000     0.269560000000     0.0464834  
H294     H      0.873140000000     0.646240000000     0.348440000000     0.0351123  
H295     H      0.851570000000     0.579580000000     0.348570000000     0.0347798  
H296     H      0.851150000000     0.579630000000     0.269720000000     0.0464248  
H297     H      0.972200000000     0.646090000000     0.010290000000     0.0464837  
H298     H      0.932720000000     0.646190000000     0.009930000000     0.0351078  
H299     H      0.932600000000     0.579540000000     0.966700000000     0.0351003  
H300     H      0.972060000000     0.579680000000     0.965180000000     0.046509   
H301     H      0.002980000000     0.579680000000     0.009840000000     0.0465772  
H302     H      0.042430000000     0.579540000000     0.008320000000     0.035157   
H303     H      0.042310000000     0.646200000000     0.965110000000     0.0350452  
H304     H      0.002830000000     0.646090000000     0.964750000000     0.0464724  
H305     H      0.329340000000     0.223070000000     0.462410000000     0.0472928  
H306     H      0.329280000000     0.183410000000     0.462430000000     0.0346256  
H307     H      0.395460000000     0.183410000000     0.508630000000     0.0346967  
H308     H      0.395340000000     0.223060000000     0.509020000000     0.0473653  
H309     H      0.374540000000     0.252890000000     0.551570000000     0.0473138  
H310     H      0.374420000000     0.292540000000     0.552240000000     0.0346534  
H311     H      0.350110000000     0.292940000000     0.420840000000     0.0349804  
H312     H      0.350030000000     0.253280000000     0.420540000000     0.0473982  
H313     H      0.329630000000     0.222420000000     0.961970000000     0.0472697  
H314     H      0.329480000000     0.182760000000     0.962190000000     0.0346511  
H315     H      0.395660000000     0.182650000000     0.008390000000     0.0347533  
H316     H      0.395640000000     0.222300000000     0.008580000000     0.0473984  
H317     H      0.374870000000     0.252210000000     0.051040000000     0.0473465  
H318     H      0.374760000000     0.291860000000     0.051620000000     0.0346293  
H319     H      0.350540000000     0.292190000000     0.920160000000     0.0349663  
H320     H      0.350450000000     0.252530000000     0.919940000000     0.0474277  
H321     H      0.329190000000     0.123980000000     0.766680000000     0.0463136  
H322     H      0.329170000000     0.123310000000     0.845510000000     0.0348173  
H323     H      0.395830000000     0.101720000000     0.845060000000     0.0350554  
H324     H      0.395620000000     0.101440000000     0.766160000000     0.0465031  
H325     H      0.395530000000     0.124190000000     0.704940000000     0.0463877  
H326     H      0.395570000000     0.123980000000     0.626090000000     0.0347773  
H327     H      0.328920000000     0.102360000000     0.626010000000     0.0350781  
H328     H      0.329110000000     0.101630000000     0.704890000000     0.0465176  
H329     H      0.329230000000     0.101600000000     0.205090000000     0.0464924  
H330     H      0.329040000000     0.101960000000     0.126200000000     0.035088   
H331     H      0.395720000000     0.123520000000     0.125900000000     0.0347838  
H332     H      0.395670000000     0.124100000000     0.204740000000     0.0463754  
H333     H      0.395730000000     0.101680000000     0.266410000000     0.0464674  
H334     H      0.395900000000     0.102290000000     0.345310000000     0.0350952  
H335     H      0.329250000000     0.123900000000     0.345270000000     0.0348129  
H336     H      0.329310000000     0.124240000000     0.266430000000     0.0463792  
H337     H      0.350230000000     0.722900000000     0.554460000000     0.0473997  
H338     H      0.350310000000     0.683230000000     0.554230000000     0.0349738  
H339     H      0.374590000000     0.683580000000     0.422800000000     0.03465    
H340     H      0.374700000000     0.723230000000     0.423400000000     0.047295   
H341     H      0.395490000000     0.753090000000     0.465910000000     0.0473573  
H342     H      0.395570000000     0.792740000000     0.466170000000     0.034671   
H343     H      0.329370000000     0.792710000000     0.512320000000     0.0346108  
H344     H      0.329480000000     0.753050000000     0.512470000000     0.0473216  
H345     H      0.395660000000     0.972570000000     0.465050000000     0.0464841  
H346     H      0.395780000000     0.933120000000     0.466710000000     0.0350827  
H347     H      0.329110000000     0.933300000000     0.509800000000     0.0351007  
H348     H      0.329220000000     0.972780000000     0.510020000000     0.046426   
H349     H      0.329240000000     0.003350000000     0.464340000000     0.0464662  
H350     H      0.329120000000     0.042820000000     0.464570000000     0.0350864  
H351     H      0.395750000000     0.043020000000     0.507900000000     0.0351283  
H352     H      0.395640000000     0.003560000000     0.509540000000     0.0464412  
H353     H      0.395530000000     0.752420000000     0.965750000000     0.0473374  
H354     H      0.395590000000     0.792070000000     0.966040000000     0.0346812  
H355     H      0.329420000000     0.792000000000     0.012340000000     0.0346601  
H356     H      0.329540000000     0.752340000000     0.012450000000     0.0472964  
H357     H      0.350310000000     0.722180000000     0.054370000000     0.0473972  
H358     H      0.350380000000     0.682520000000     0.054080000000     0.0349905  
H359     H      0.374610000000     0.682900000000     0.922620000000     0.0346448  
H360     H      0.374740000000     0.722550000000     0.923280000000     0.0473034  
H361     H      0.395550000000     0.851220000000     0.769660000000     0.046378   
H362     H      0.395600000000     0.851440000000     0.848500000000     0.0347698  
H363     H      0.328940000000     0.873040000000     0.848600000000     0.0351035  
H364     H      0.329120000000     0.873760000000     0.769720000000     0.0464638  
H365     H      0.329200000000     0.851430000000     0.707930000000     0.0463514  
H366     H      0.329170000000     0.852100000000     0.629110000000     0.0348329  
H367     H      0.395830000000     0.873690000000     0.629540000000     0.0351023  
H368     H      0.395630000000     0.873970000000     0.708440000000     0.0464481  
H369     H      0.329240000000     0.873880000000     0.269500000000     0.0464638  
H370     H      0.329040000000     0.873500000000     0.348390000000     0.0351056  
H371     H      0.395710000000     0.851940000000     0.348720000000     0.0347628  
H372     H      0.395680000000     0.851370000000     0.269880000000     0.0463533  
H373     H      0.395740000000     0.873810000000     0.208210000000     0.0465099  
H374     H      0.395920000000     0.873200000000     0.129320000000     0.0350787  
H375     H      0.329270000000     0.851560000000     0.129330000000     0.0348042  
H376     H      0.329330000000     0.851230000000     0.208160000000     0.0463948  
H377     H      0.329150000000     0.002670000000     0.964600000000     0.0464387  
H378     H      0.329050000000     0.042150000000     0.964840000000     0.0350982  
H379     H      0.395720000000     0.042310000000     0.007950000000     0.0351979  
H380     H      0.395590000000     0.002850000000     0.009590000000     0.0464997  
H381     H      0.395570000000     0.971900000000     0.965010000000     0.0464939  
H382     H      0.395710000000     0.932450000000     0.966630000000     0.0350797  
H383     H      0.329080000000     0.932600000000     0.009970000000     0.0351042  
H384     H      0.329180000000     0.972070000000     0.010230000000     0.0464921  
O1       O      0.344290000000     0.895140000000     0.989600000000    -0.386163   
O2       O      0.344330000000     0.829360000000     0.989030000000    -0.38591    
O3       O      0.344410000000     0.862010000000     0.054800000000    -0.386591   
O4       O      0.344210000000     0.862490000000     0.923370000000    -0.385572   
O5       O      0.380450000000     0.861900000000     0.923070000000    -0.386808   
O6       O      0.380660000000     0.862660000000     0.054510000000    -0.385431   
O7       O      0.380590000000     0.829390000000     0.989140000000    -0.38598    
O8       O      0.380530000000     0.895160000000     0.987940000000    -0.386159   
O9       O      0.344320000000     0.830060000000     0.489000000000    -0.385985   
O10      O      0.344320000000     0.895840000000     0.489520000000    -0.386056   
O11      O      0.344270000000     0.863170000000     0.423310000000    -0.385617   
O12      O      0.344370000000     0.862710000000     0.554740000000    -0.386719   
O13      O      0.380620000000     0.863330000000     0.554570000000    -0.385455   
O14      O      0.380510000000     0.862560000000     0.423130000000    -0.386732   
O15      O      0.380560000000     0.895830000000     0.487980000000    -0.386153   
O16      O      0.380580000000     0.830070000000     0.489220000000    -0.386058   
O17      O      0.344290000000     0.079620000000     0.985110000000    -0.38589    
O18      O      0.344370000000     0.145400000000     0.985580000000    -0.386088   
O19      O      0.344380000000     0.112730000000     0.919870000000    -0.386721   
O20      O      0.344280000000     0.112300000000     0.051290000000    -0.385637   
O21      O      0.380520000000     0.112870000000     0.051470000000    -0.386731   
O22      O      0.380620000000     0.112080000000     0.920040000000    -0.385567   
O23      O      0.380630000000     0.145350000000     0.985360000000    -0.386035   
O24      O      0.380540000000     0.079580000000     0.986650000000    -0.386132   
O25      O      0.344300000000     0.080280000000     0.484970000000    -0.38599    
O26      O      0.344260000000     0.146060000000     0.485620000000    -0.386147   
O27      O      0.344390000000     0.113430000000     0.419810000000    -0.386874   
O28      O      0.344180000000     0.112910000000     0.551240000000    -0.385472   
O29      O      0.380420000000     0.113540000000     0.551530000000    -0.38674    
O30      O      0.380630000000     0.112830000000     0.420110000000    -0.385621   
O31      O      0.380510000000     0.146080000000     0.485510000000    -0.38614    
O32      O      0.380540000000     0.080300000000     0.486630000000    -0.386128   
O33      O      0.895280000000     0.630970000000     0.989530000000    -0.386011   
O34      O      0.829500000000     0.630920000000     0.988950000000    -0.385933   
O35      O      0.862150000000     0.630860000000     0.054720000000    -0.386675   
O36      O      0.862630000000     0.631020000000     0.923290000000    -0.385516   
O37      O      0.862040000000     0.594780000000     0.923050000000    -0.386848   
O38      O      0.862790000000     0.594620000000     0.054480000000    -0.385601   
O39      O      0.829530000000     0.594660000000     0.989110000000    -0.386005   
O40      O      0.895300000000     0.594730000000     0.987920000000    -0.386277   
O41      O      0.829570000000     0.630920000000     0.488930000000    -0.386118   
O42      O      0.895350000000     0.630920000000     0.489540000000    -0.38608    
O43      O      0.862710000000     0.631000000000     0.423290000000    -0.385419   
O44      O      0.862210000000     0.630840000000     0.554710000000    -0.386888   
O45      O      0.862830000000     0.594600000000     0.554490000000    -0.385537   
O46      O      0.862100000000     0.594750000000     0.423060000000    -0.386593   
O47      O      0.895350000000     0.594680000000     0.487950000000    -0.386208   
O48      O      0.829580000000     0.594660000000     0.489100000000    -0.386047   
O49      O      0.079760000000     0.630960000000     0.985490000000    -0.386088   
O50      O      0.145540000000     0.630890000000     0.986070000000    -0.385974   
O51      O      0.112900000000     0.630850000000     0.920300000000    -0.386826   
O52      O      0.112420000000     0.631000000000     0.051720000000    -0.385703   
O53      O      0.112990000000     0.594760000000     0.051960000000    -0.386736   
O54      O      0.112240000000     0.594610000000     0.920530000000    -0.385526   
O55      O      0.145490000000     0.594630000000     0.985890000000    -0.386074   
O56      O      0.079730000000     0.594720000000     0.987090000000    -0.386164   
O57      O      0.079800000000     0.630950000000     0.485470000000    -0.386022   
O58      O      0.145580000000     0.630990000000     0.486080000000    -0.385943   
O59      O      0.112940000000     0.630880000000     0.420290000000    -0.386851   
O60      O      0.112440000000     0.631050000000     0.551720000000    -0.385439   
O61      O      0.113070000000     0.594800000000     0.551960000000    -0.386723   
O62      O      0.112340000000     0.594640000000     0.420540000000    -0.385508   
O63      O      0.145590000000     0.594730000000     0.485920000000    -0.386014   
O64      O      0.079820000000     0.594710000000     0.487070000000    -0.386309   
O65      O      0.594590000000     0.079800000000     0.987060000000    -0.386162   
O66      O      0.594540000000     0.145570000000     0.988240000000    -0.386082   
O67      O      0.594640000000     0.113060000000     0.922180000000    -0.386694   
O68      O      0.594500000000     0.112320000000     0.053610000000    -0.385506   
O69      O      0.630740000000     0.112960000000     0.053830000000    -0.386785   
O70      O      0.630880000000     0.112470000000     0.922400000000    -0.385676   
O71      O      0.630790000000     0.145600000000     0.988060000000    -0.386139   
O72      O      0.630830000000     0.079820000000     0.988650000000    -0.386164   
O73      O      0.594570000000     0.080010000000     0.487080000000    -0.386263   
O74      O      0.594570000000     0.145780000000     0.488180000000    -0.386119   
O75      O      0.594660000000     0.113250000000     0.422160000000    -0.386763   
O76      O      0.594490000000     0.112540000000     0.553590000000    -0.385637   
O77      O      0.630730000000     0.113150000000     0.553840000000    -0.386811   
O78      O      0.630900000000     0.112630000000     0.422420000000    -0.385636   
O79      O      0.630820000000     0.145780000000     0.488030000000    -0.386247   
O80      O      0.630810000000     0.080000000000     0.488700000000    -0.386177   
O81      O      0.594570000000     0.895370000000     0.986870000000    -0.386138   
O82      O      0.594500000000     0.829600000000     0.985760000000    -0.386228   
O83      O      0.594620000000     0.862120000000     0.051790000000    -0.386621   
O84      O      0.594450000000     0.862840000000     0.920360000000    -0.385374   
O85      O      0.630700000000     0.862190000000     0.920110000000    -0.38667    
O86      O      0.630870000000     0.862710000000     0.051530000000    -0.385367   
O87      O      0.630750000000     0.829560000000     0.985910000000    -0.386217   
O88      O      0.630810000000     0.895340000000     0.985260000000    -0.385934   
O89      O      0.594550000000     0.895550000000     0.486830000000    -0.386252   
O90      O      0.594530000000     0.829780000000     0.485780000000    -0.385944   
O91      O      0.594610000000     0.862320000000     0.551770000000    -0.386622   
O92      O      0.594470000000     0.863000000000     0.420340000000    -0.385492   
O93      O      0.630720000000     0.862380000000     0.420120000000    -0.386634   
O94      O      0.630860000000     0.862930000000     0.551550000000    -0.385454   
O95      O      0.630790000000     0.829770000000     0.485960000000    -0.385985   
O96      O      0.630790000000     0.895550000000     0.485250000000    -0.386107   
O97      O      0.329430000000     0.362410000000     0.950990000000    -0.386367   
O98      O      0.395240000000     0.362560000000     0.950410000000    -0.385242   
O99      O      0.362290000000     0.329500000000     0.950200000000    -0.385828   
O100     O      0.362140000000     0.395240000000     0.951030000000    -0.386923   
O101     O      0.362490000000     0.395020000000     0.023460000000    -0.385136   
O102     O      0.362810000000     0.329210000000     0.022630000000    -0.386372   
O103     O      0.395400000000     0.362150000000     0.022830000000    -0.38696    
O104     O      0.329660000000     0.361820000000     0.023420000000    -0.385836   
O105     O      0.329410000000     0.363420000000     0.451780000000    -0.386414   
O106     O      0.395220000000     0.363010000000     0.450790000000    -0.385182   
O107     O      0.362000000000     0.330220000000     0.450830000000    -0.385833   
O108     O      0.362380000000     0.395950000000     0.451560000000    -0.387065   
O109     O      0.362840000000     0.395760000000     0.523990000000    -0.385231   
O110     O      0.362640000000     0.329950000000     0.523250000000    -0.386371   
O111     O      0.395480000000     0.362620000000     0.523220000000    -0.387047   
O112     O      0.329750000000     0.362860000000     0.524210000000    -0.385943   
O113     O      0.329390000000     0.612220000000     0.023160000000    -0.38647    
O114     O      0.395200000000     0.612250000000     0.023850000000    -0.385071   
O115     O      0.362160000000     0.645220000000     0.024020000000    -0.385807   
O116     O      0.362180000000     0.579480000000     0.023160000000    -0.386869   
O117     O      0.362550000000     0.579710000000     0.950730000000    -0.385071   
O118     O      0.362710000000     0.645520000000     0.951590000000    -0.38648    
O119     O      0.395380000000     0.612660000000     0.951420000000    -0.387009   
O120     O      0.329640000000     0.612820000000     0.950730000000    -0.385773   
O121     O      0.329450000000     0.612860000000     0.523400000000    -0.386461   
O122     O      0.395260000000     0.613030000000     0.524150000000    -0.385169   
O123     O      0.362150000000     0.645930000000     0.524240000000    -0.385923   
O124     O      0.362310000000     0.580200000000     0.523490000000    -0.386978   
O125     O      0.362700000000     0.580400000000     0.451060000000    -0.385296   
O126     O      0.362720000000     0.646210000000     0.451810000000    -0.386442   
O127     O      0.395460000000     0.613420000000     0.451720000000    -0.387041   
O128     O      0.329720000000     0.613430000000     0.450970000000    -0.385736   
O129     O      0.645660000000     0.362710000000     0.023080000000    -0.386317   
O130     O      0.579850000000     0.362650000000     0.023680000000    -0.385217   
O131     O      0.612900000000     0.329690000000     0.023760000000    -0.385723   
O132     O      0.612860000000     0.395430000000     0.023170000000    -0.387007   
O133     O      0.612510000000     0.395270000000     0.950740000000    -0.385267   
O134     O      0.612370000000     0.329470000000     0.951320000000    -0.386501   
O135     O      0.579690000000     0.362310000000     0.951250000000    -0.387057   
O136     O      0.645430000000     0.362180000000     0.950650000000    -0.385752   
O137     O      0.612440000000     0.329680000000     0.451070000000    -0.386365   
O138     O      0.612460000000     0.395490000000     0.450550000000    -0.385243   
O139     O      0.645440000000     0.362460000000     0.450320000000    -0.385872   
O140     O      0.579700000000     0.362460000000     0.451110000000    -0.387069   
O141     O      0.579910000000     0.362790000000     0.523540000000    -0.385258   
O142     O      0.645720000000     0.362970000000     0.522750000000    -0.386506   
O143     O      0.612860000000     0.395630000000     0.522980000000    -0.386931   
O144     O      0.613030000000     0.329890000000     0.523500000000    -0.385861   
O145     O      0.645660000000     0.612440000000     0.951640000000    -0.386452   
O146     O      0.579850000000     0.612470000000     0.950870000000    -0.385279   
O147     O      0.612890000000     0.645440000000     0.950790000000    -0.385924   
O148     O      0.612860000000     0.579710000000     0.951540000000    -0.387068   
O149     O      0.612470000000     0.579900000000     0.023970000000    -0.385141   
O150     O      0.612310000000     0.645720000000     0.023220000000    -0.386383   
O151     O      0.579640000000     0.612860000000     0.023290000000    -0.386989   
O152     O      0.645380000000     0.613000000000     0.024070000000    -0.385728   
O153     O      0.645710000000     0.612590000000     0.451700000000    -0.386408   
O154     O      0.579900000000     0.612750000000     0.451010000000    -0.385253   
O155     O      0.613000000000     0.645660000000     0.450940000000    -0.385835   
O156     O      0.612860000000     0.579920000000     0.451600000000    -0.387133   
O157     O      0.612480000000     0.580090000000     0.524030000000    -0.385162   
O158     O      0.612440000000     0.645910000000     0.523370000000    -0.386311   
O159     O      0.579720000000     0.613110000000     0.523440000000    -0.38704    
O160     O      0.645450000000     0.613140000000     0.524130000000    -0.386004   
O161     O      0.145350000000     0.344290000000     0.989140000000    -0.385597   
O162     O      0.079580000000     0.344940000000     0.989080000000    -0.386778   
O163     O      0.112360000000     0.344530000000     0.923160000000    -0.385579   
O164     O      0.112350000000     0.344710000000     0.054600000000    -0.386686   
O165     O      0.112980000000     0.380960000000     0.054320000000    -0.385377   
O166     O      0.112920000000     0.380770000000     0.922900000000    -0.386849   
O167     O      0.079950000000     0.381190000000     0.988420000000    -0.38557    
O168     O      0.145720000000     0.380540000000     0.988300000000    -0.38658    
O169     O      0.145380000000     0.381260000000     0.488660000000    -0.385561   
O170     O      0.079620000000     0.380590000000     0.488150000000    -0.38681    
O171     O      0.112270000000     0.380970000000     0.554370000000    -0.385474   
O172     O      0.112510000000     0.380860000000     0.422930000000    -0.386785   
O173     O      0.113150000000     0.344620000000     0.423130000000    -0.385658   
O174     O      0.112830000000     0.344720000000     0.554550000000    -0.386734   
O175     O      0.079990000000     0.344340000000     0.488720000000    -0.385533   
O176     O      0.145770000000     0.345010000000     0.489430000000    -0.386647   
O177     O      0.829610000000     0.344680000000     0.985940000000    -0.385985   
O178     O      0.895400000000     0.344990000000     0.985130000000    -0.386292   
O179     O      0.862810000000     0.344730000000     0.051460000000    -0.385623   
O180     O      0.862200000000     0.344890000000     0.920080000000    -0.386981   
O181     O      0.862670000000     0.381140000000     0.920270000000    -0.38524    
O182     O      0.862040000000     0.380970000000     0.051750000000    -0.386535   
O183     O      0.895240000000     0.381220000000     0.986740000000    -0.386295   
O184     O      0.829470000000     0.380930000000     0.985780000000    -0.386228   
O185     O      0.829510000000     0.344530000000     0.485720000000    -0.386229   
O186     O      0.895280000000     0.344260000000     0.485370000000    -0.386254   
O187     O      0.862580000000     0.344330000000     0.551510000000    -0.385255   
O188     O      0.862210000000     0.344490000000     0.420050000000    -0.386621   
O189     O      0.862970000000     0.380730000000     0.420320000000    -0.38567    
O190     O      0.862100000000     0.380580000000     0.551710000000    -0.38686    
O191     O      0.895420000000     0.380500000000     0.486980000000    -0.386143   
O192     O      0.829650000000     0.380780000000     0.485550000000    -0.386084   


