data_structure

_audit_creation_method RASPA-1.0
_audit_creation_date 2023-5-22
_audit_author_name 'Poobodin Mano'

_cell_length_a    31.9512
_cell_length_b    31.6695
_cell_length_c    28.5383
_cell_angle_alpha 89.9999
_cell_angle_beta  90
_cell_angle_gamma 89.9979
_cell_volume      28877.3

_symmetry_cell_setting          triclinic
_symmetry_space_group_name_Hall 'P 1'
_symmetry_space_group_name_H-M  'P 1'
_symmetry_Int_Tables_number     1

_symmetry_equiv_pos_as_xyz 'x,y,z'

loop_
_atom_site_label
_atom_site_type_symbol
_atom_site_fract_x
_atom_site_fract_y
_atom_site_fract_z
_atom_site_charge
C1       C      0.399670000000     0.296840000000     0.941420000000     0.403212   
C2       C      0.521620000000     0.286630000000     0.066800000000     0.403781   
C3       C      0.404820000000     0.294710000000     0.072390000000     0.399125   
C4       C      0.517900000000     0.287830000000     0.935110000000     0.398988   
C5       C      0.190960000000     0.638000000000     0.066990000000     0.400954   
C6       C      0.192530000000     0.529150000000     0.924900000000     0.399525   
C7       C      0.200370000000     0.647320000000     0.935010000000     0.399913   
C8       C      0.183820000000     0.522080000000     0.058040000000     0.399597   
C9       C      0.542440000000     0.843890000000     0.948520000000     0.399417   
C10      C      0.426150000000     0.858610000000     0.081100000000     0.400026   
C11      C      0.543080000000     0.848610000000     0.078200000000     0.401003   
C12      C      0.424250000000     0.853380000000     0.947780000000     0.399927   
C13      C      0.753420000000     0.511580000000     0.079970000000     0.396814   
C14      C      0.768670000000     0.617750000000     0.935980000000     0.397919   
C15      C      0.759620000000     0.502180000000     0.946750000000     0.398708   
C16      C      0.762130000000     0.629330000000     0.068140000000     0.400259   
C17      C      0.259020000000     0.027200000000     0.425970000000     0.401265   
C18      C      0.247320000000     0.142710000000     0.560600000000     0.400892   
C19      C      0.259570000000     0.024950000000     0.559500000000     0.399174   
C20      C      0.247160000000     0.144920000000     0.429600000000     0.399986   
C21      C      0.929600000000     0.797340000000     0.439210000000     0.399194   
C22      C      0.040720000000     0.797590000000     0.578110000000     0.401164   
C23      C      0.924900000000     0.792870000000     0.573640000000     0.398004   
C24      C      0.046180000000     0.802390000000     0.445710000000     0.398394   
C25      C      0.702020000000     0.008310000000     0.449360000000     0.401298   
C26      C      0.691010000000     0.126750000000     0.580510000000     0.401798   
C27      C      0.698780000000     0.007570000000     0.579030000000     0.39996    
C28      C      0.694160000000     0.128150000000     0.449290000000     0.400056   
C29      C      0.907530000000     0.342330000000     0.572420000000     0.395528   
C30      C      0.017020000000     0.359290000000     0.432450000000     0.397592   
C31      C      0.902390000000     0.349720000000     0.438820000000     0.40124    
C32      C      0.024840000000     0.352580000000     0.564080000000     0.402208   
C33      C      0.269490000000     0.320780000000     0.185160000000     0.398846   
C34      C      0.145760000000     0.344210000000     0.308030000000     0.397605   
C35      C      0.184900000000     0.400170000000     0.197300000000     0.399577   
C36      C      0.231390000000     0.264270000000     0.294000000000     0.400507   
C37      C      0.646240000000     0.294420000000     0.201590000000     0.403284   
C38      C      0.773460000000     0.330050000000     0.314270000000     0.401936   
C39      C      0.726460000000     0.379680000000     0.202760000000     0.397183   
C40      C      0.693850000000     0.245430000000     0.309530000000     0.40019    
C41      C      0.656690000000     0.301740000000     0.826380000000     0.398418   
C42      C      0.779520000000     0.318190000000     0.700690000000     0.39602    
C43      C      0.744090000000     0.377320000000     0.811000000000     0.399667   
C44      C      0.691930000000     0.241060000000     0.718910000000     0.401795   
C45      C      0.664940000000     0.839750000000     0.209930000000     0.401573   
C46      C      0.804560000000     0.807400000000     0.304660000000     0.39965    
C47      C      0.751940000000     0.760750000000     0.197060000000     0.400543   
C48      C      0.717620000000     0.886710000000     0.313790000000     0.401396   
C49      C      0.666510000000     0.829040000000     0.815950000000     0.399627   
C50      C      0.795590000000     0.802050000000     0.701440000000     0.397516   
C51      C      0.751130000000     0.747370000000     0.811790000000     0.397443   
C52      C      0.710780000000     0.882630000000     0.710240000000     0.400201   
C53      C      0.292610000000     0.846810000000     0.200180000000     0.398694   
C54      C      0.158290000000     0.809930000000     0.302980000000     0.399613   
C55      C      0.210610000000     0.766310000000     0.192680000000     0.400414   
C56      C      0.240570000000     0.892390000000     0.311160000000     0.400618   
C57      C      0.301630000000     0.847640000000     0.808220000000     0.399593   
C58      C      0.175500000000     0.821130000000     0.690100000000     0.401109   
C59      C      0.217180000000     0.766250000000     0.798720000000     0.400309   
C60      C      0.258240000000     0.901900000000     0.698540000000     0.399372   
C61      C      0.283410000000     0.310200000000     0.803180000000     0.402923   
C62      C      0.157620000000     0.346230000000     0.688940000000     0.402515   
C63      C      0.204970000000     0.398670000000     0.795460000000     0.399151   
C64      C      0.236040000000     0.258430000000     0.699060000000     0.401365   
C65      C      0.133660000000     0.347780000000     0.607530000000    -0.0114395  
C66      C      0.083500000000     0.362360000000     0.674980000000    -0.0108627  
C67      C      0.095060000000     0.327900000000     0.584580000000    -0.0107769  
C68      C      0.056610000000     0.381270000000     0.635660000000    -0.0112012  
C69      C      0.082660000000     0.314450000000     0.344830000000    -0.0118449  
C70      C      0.116620000000     0.379910000000     0.378350000000    -0.0120168  
C71      C      0.039830000000     0.333220000000     0.355220000000    -0.0101376  
C72      C      0.072860000000     0.397890000000     0.389450000000    -0.01195    
C73      C      0.802860000000     0.368690000000     0.381760000000    -0.0112226  
C74      C      0.833760000000     0.299350000000     0.354880000000    -0.0116176  
C75      C      0.847000000000     0.384900000000     0.392560000000    -0.0108676  
C76      C      0.877250000000     0.315550000000     0.366830000000    -0.0102184  
C77      C      0.883310000000     0.303220000000     0.642690000000    -0.0122452  
C78      C      0.850730000000     0.372600000000     0.620610000000    -0.0115717  
C79      C      0.840340000000     0.287160000000     0.659430000000    -0.0126022  
C80      C      0.807320000000     0.354660000000     0.630920000000    -0.0114864  
C81      C      0.705500000000     0.166990000000     0.697560000000    -0.0114612  
C82      C      0.643620000000     0.204050000000     0.663770000000    -0.0110184  
C83      C      0.723510000000     0.159370000000     0.649040000000    -0.00951452 
C84      C      0.656500000000     0.189490000000     0.614340000000    -0.0122943  
C85      C      0.659820000000     0.191210000000     0.415860000000    -0.0121688  
C86      C      0.730450000000     0.166520000000     0.386580000000    -0.0103782  
C87      C      0.649080000000     0.206200000000     0.366020000000    -0.0113012  
C88      C      0.716260000000     0.175060000000     0.336540000000    -0.011485   
C89      C      0.733910000000     0.958510000000     0.341060000000    -0.0110521  
C90      C      0.668950000000     0.921710000000     0.369230000000    -0.0115306  
C91      C      0.744520000000     0.971230000000     0.390940000000    -0.0100402  
C92      C      0.675610000000     0.940730000000     0.418200000000    -0.0119632  
C93      C      0.670430000000     0.940260000000     0.608780000000    -0.0123317  
C94      C      0.738300000000     0.970450000000     0.640080000000    -0.00993289 
C95      C      0.661900000000     0.920710000000     0.657160000000    -0.0114339  
C96      C      0.725630000000     0.956630000000     0.689090000000    -0.0116337  
C97      C      0.082030000000     0.843560000000     0.384220000000    -0.0113452  
C98      C      0.109930000000     0.772430000000     0.409200000000    -0.0119924  
C99      C      0.088850000000     0.831260000000     0.332960000000    -0.0117724  
C100     C      0.120510000000     0.762470000000     0.357960000000    -0.0110748  
C101     C      0.069000000000     0.832840000000     0.648440000000    -0.0100664  
C102     C      0.098040000000     0.763120000000     0.622330000000    -0.0115385  
C103     C      0.113020000000     0.850880000000     0.651940000000    -0.011282   
C104     C      0.142650000000     0.780960000000     0.625390000000    -0.0115316  
C105     C      0.826250000000     0.767290000000     0.631750000000    -0.0118484  
C106     C      0.855020000000     0.836210000000     0.662420000000    -0.0120632  
C107     C      0.870860000000     0.753590000000     0.618340000000    -0.0112841  
C108     C      0.898860000000     0.822580000000     0.647760000000    -0.0109656  
C109     C      0.894270000000     0.837000000000     0.376400000000    -0.0114659  
C110     C      0.883340000000     0.757850000000     0.385670000000    -0.0120949  
C111     C      0.876240000000     0.828420000000     0.327440000000    -0.012273   
C112     C      0.839440000000     0.766420000000     0.366310000000    -0.0113529  
C113     C      0.205150000000     0.180190000000     0.368940000000    -0.0106913  
C114     C      0.274090000000     0.211380000000     0.395650000000    -0.0121149  
C115     C      0.216560000000     0.191010000000     0.318500000000    -0.0115889  
C116     C      0.282110000000     0.226780000000     0.345440000000    -0.0112433  
C117     C      0.276760000000     0.205920000000     0.599070000000    -0.0117758  
C118     C      0.204670000000     0.179010000000     0.620480000000    -0.0111603  
C119     C      0.284720000000     0.215940000000     0.650640000000    -0.0106393  
C120     C      0.214290000000     0.187490000000     0.672140000000    -0.0118658  
C121     C      0.224760000000     0.987290000000     0.623730000000    -0.0108242  
C122     C      0.302460000000     0.976790000000     0.607910000000    -0.0120089  
C123     C      0.237250000000     0.973100000000     0.672970000000    -0.0125679  
C124     C      0.295920000000     0.933680000000     0.631800000000    -0.0120139  
C125     C      0.227630000000     0.999040000000     0.353810000000    -0.00888846 
C126     C      0.296300000000     0.970650000000     0.382540000000    -0.0114458  
C127     C      0.210340000000     0.954590000000     0.349680000000    -0.0112836  
C128     C      0.279670000000     0.925200000000     0.376960000000    -0.0118182  
C129     C      0.784380000000     0.456390000000     0.130660000000    -0.0116385  
C130     C      0.714430000000     0.487280000000     0.150250000000    -0.0118484  
C131     C      0.767470000000     0.411900000000     0.139000000000    -0.0113682  
C132     C      0.698320000000     0.443330000000     0.164210000000    -0.0126189  
C133     C      0.736200000000     0.699530000000     0.089730000000    -0.0111367  
C134     C      0.788620000000     0.660660000000     0.141210000000    -0.0114924  
C135     C      0.754040000000     0.738350000000     0.114910000000    -0.0114381  
C136     C      0.767930000000     0.686110000000     0.180870000000    -0.0111933  
C137     C      0.789910000000     0.715860000000     0.878180000000    -0.0119794  
C138     C      0.724760000000     0.681050000000     0.844930000000    -0.0123632  
C139     C      0.807300000000     0.671850000000     0.890140000000    -0.0114953  
C140     C      0.742990000000     0.638130000000     0.857670000000    -0.0100891  
C141     C      0.729470000000     0.450540000000     0.835440000000    -0.0124912  
C142     C      0.786750000000     0.407530000000     0.874590000000    -0.0119832  
C143     C      0.719800000000     0.466230000000     0.884920000000    -0.0112015  
C144     C      0.797040000000     0.450190000000     0.897660000000    -0.0120445  
C145     C      0.593140000000     0.818900000000     0.187720000000    -0.0116694  
C146     C      0.621850000000     0.888540000000     0.161840000000    -0.0110105  
C147     C      0.581880000000     0.807790000000     0.137310000000    -0.0106921  
C148     C      0.607180000000     0.879990000000     0.111680000000    -0.0118845  
C149     C      0.354470000000     0.814770000000     0.164120000000    -0.0119075  
C150     C      0.327190000000     0.885050000000     0.135040000000    -0.0118431  
C151     C      0.398940000000     0.829590000000     0.155050000000    -0.0100206  
C152     C      0.372560000000     0.899040000000     0.125470000000    -0.0113767  
C153     C      0.385580000000     0.814520000000     0.887260000000    -0.0113208  
C154     C      0.373960000000     0.893280000000     0.899100000000    -0.0119088  
C155     C      0.370150000000     0.824210000000     0.837700000000    -0.0120125  
C156     C      0.330840000000     0.884260000000     0.877220000000    -0.0118532  
C157     C      0.629050000000     0.877000000000     0.870070000000    -0.0116596  
C158     C      0.595250000000     0.810100000000     0.841700000000    -0.0112829  
C159     C      0.610090000000     0.869890000000     0.918770000000    -0.0119456  
C160     C      0.580550000000     0.800250000000     0.891350000000    -0.0108546  
C161     C      0.155620000000     0.692990000000     0.114300000000    -0.0112778  
C162     C      0.222870000000     0.660590000000     0.141650000000    -0.010365   
C163     C      0.172980000000     0.737190000000     0.124340000000    -0.0114187  
C164     C      0.240220000000     0.704130000000     0.153290000000    -0.0117505  
C165     C      0.139970000000     0.473290000000     0.104770000000    -0.0120556  
C166     C      0.216570000000     0.486310000000     0.124680000000    -0.0108137  
C167     C      0.146280000000     0.430960000000     0.130580000000    -0.0122653  
C168     C      0.202150000000     0.472860000000     0.173400000000    -0.0125894  
C169     C      0.224950000000     0.471700000000     0.815900000000    -0.0123064  
C170     C      0.164200000000     0.434900000000     0.856520000000    -0.0114818  
C171     C      0.232660000000     0.492330000000     0.863760000000    -0.0112439  
C172     C      0.154430000000     0.479930000000     0.873080000000    -0.0121691  
C173     C      0.166930000000     0.727880000000     0.849680000000    -0.0111543  
C174     C      0.235220000000     0.694780000000     0.826740000000    -0.0115779  
C175     C      0.173720000000     0.713780000000     0.900540000000    -0.0118793  
C176     C      0.244660000000     0.685010000000     0.878050000000    -0.0110028  
C177     C      0.345900000000     0.262430000000     0.116170000000    -0.0117962  
C178     C      0.375910000000     0.332080000000     0.141280000000    -0.0107194  
C179     C      0.301490000000     0.280780000000     0.119680000000    -0.01173    
C180     C      0.331890000000     0.350260000000     0.146050000000    -0.0116761  
C181     C      0.616410000000     0.255340000000     0.134610000000    -0.0116791  
C182     C      0.574590000000     0.311660000000     0.177630000000    -0.0118168  
C183     C      0.573500000000     0.245880000000     0.112400000000    -0.0115664  
C184     C      0.558570000000     0.323480000000     0.129300000000    -0.0101461  
C185     C      0.574860000000     0.249720000000     0.893500000000    -0.0120784  
C186     C      0.551960000000     0.321790000000     0.867210000000    -0.0104117  
C187     C      0.620980000000     0.264060000000     0.891510000000    -0.0118846  
C188     C      0.597360000000     0.336330000000     0.865950000000    -0.0110549  
C189     C      0.318030000000     0.261070000000     0.858780000000    -0.0112785  
C190     C      0.353890000000     0.327380000000     0.831940000000    -0.0108558  
C191     C      0.333350000000     0.269280000000     0.908940000000    -0.0116144  
C192     C      0.363110000000     0.339270000000     0.882400000000    -0.0103642  
Cu1      Cu     0.458360000000     0.252250000000     0.003190000000     0.832185   
Cu2      Cu     0.463900000000     0.330130000000     0.003930000000     0.85888    
Cu3      Cu     0.230270000000     0.581140000000     0.998580000000     0.851248   
Cu4      Cu     0.153280000000     0.586840000000     0.992720000000     0.835679   
Cu5      Cu     0.486280000000     0.890250000000     0.011790000000     0.834199   
Cu6      Cu     0.480210000000     0.812500000000     0.015410000000     0.852149   
Cu7      Cu     0.722670000000     0.568140000000     0.005340000000     0.84129    
Cu8      Cu     0.799360000000     0.562200000000     0.011240000000     0.833058   
Cu9      Cu     0.292020000000     0.088240000000     0.493900000000     0.834608   
Cu10     Cu     0.215020000000     0.080550000000     0.493900000000     0.853008   
Cu11     Cu     0.986740000000     0.758460000000     0.507380000000     0.833285   
Cu12     Cu     0.983210000000     0.836370000000     0.510500000000     0.845003   
Cu13     Cu     0.734800000000     0.070480000000     0.515570000000     0.8588     
Cu14     Cu     0.657570000000     0.065530000000     0.513190000000     0.83265    
Cu15     Cu     0.959300000000     0.389680000000     0.505850000000     0.833083   
Cu16     Cu     0.966110000000     0.312320000000     0.499520000000     0.842839   
Cu17     Cu     0.184270000000     0.310150000000     0.222380000000     0.841895   
Cu18     Cu     0.230870000000     0.354800000000     0.270460000000     0.839054   
Cu19     Cu     0.686820000000     0.334730000000     0.281340000000     0.842711   
Cu20     Cu     0.733790000000     0.291040000000     0.232540000000     0.847096   
Cu21     Cu     0.741320000000     0.287000000000     0.788120000000     0.838524   
Cu22     Cu     0.695390000000     0.332150000000     0.739810000000     0.841391   
Cu23     Cu     0.754340000000     0.848130000000     0.230940000000     0.846138   
Cu24     Cu     0.715950000000     0.798290000000     0.281600000000     0.841195   
Cu25     Cu     0.709040000000     0.792250000000     0.734950000000     0.838052   
Cu26     Cu     0.754110000000     0.836950000000     0.784770000000     0.84213    
Cu27     Cu     0.247140000000     0.805250000000     0.276310000000     0.842567   
Cu28     Cu     0.204030000000     0.853130000000     0.227860000000     0.842657   
Cu29     Cu     0.215340000000     0.856370000000     0.773760000000     0.843963   
Cu30     Cu     0.261570000000     0.812110000000     0.724710000000     0.842233   
Cu31     Cu     0.244590000000     0.348230000000     0.721260000000     0.850728   
Cu32     Cu     0.195680000000     0.309130000000     0.772160000000     0.839605   
H1       H      0.068860000000     0.332580000000     0.687560000000     0.0445377  
H2       H      0.161410000000     0.327380000000     0.600880000000     0.0388574  
H3       H      0.090260000000     0.295580000000     0.598860000000     0.0440545  
H4       H      0.084640000000     0.384540000000     0.705190000000     0.0366375  
H5       H      0.023950000000     0.385640000000     0.648350000000     0.0380325  
H6       H      0.069070000000     0.412870000000     0.626020000000     0.0431158  
H7       H      0.139780000000     0.379120000000     0.591380000000     0.042513   
H8       H      0.100360000000     0.324860000000     0.546170000000     0.0375873  
H9       H      0.129190000000     0.364820000000     0.410600000000     0.0406751  
H10      H      0.091340000000     0.293280000000     0.374370000000     0.0409635  
H11      H      0.017000000000     0.307380000000     0.361800000000     0.0409141  
H12      H      0.137810000000     0.406410000000     0.368800000000     0.0414925  
H13      H      0.074600000000     0.417510000000     0.421710000000     0.0405674  
H14      H      0.063040000000     0.418450000000     0.359840000000     0.0403892  
H15      H      0.080370000000     0.294560000000     0.312840000000     0.0425882  
H16      H      0.029180000000     0.350500000000     0.323450000000     0.0390204  
H17      H      0.822180000000     0.280430000000     0.385040000000     0.0400901  
H18      H      0.788830000000     0.356200000000     0.414630000000     0.041635   
H19      H      0.845390000000     0.407290000000     0.422540000000     0.0407861  
H20      H      0.836120000000     0.277690000000     0.324340000000     0.0420239  
H21      H      0.897260000000     0.288600000000     0.377860000000     0.0409012  
H22      H      0.891250000000     0.328990000000     0.334400000000     0.0381119  
H23      H      0.783310000000     0.395580000000     0.369510000000     0.0409512  
H24      H      0.858910000000     0.402260000000     0.361420000000     0.0404583  
H25      H      0.862310000000     0.389240000000     0.652390000000     0.0410651  
H26      H      0.900620000000     0.314990000000     0.673860000000     0.0381314  
H27      H      0.844740000000     0.267650000000     0.691440000000     0.0419776  
H28      H      0.847900000000     0.396100000000     0.591820000000     0.0421789  
H29      H      0.786500000000     0.381060000000     0.641810000000     0.0417858  
H30      H      0.794430000000     0.340700000000     0.598200000000     0.0420521  
H31      H      0.901510000000     0.276250000000     0.628320000000     0.0422714  
H32      H      0.827580000000     0.265940000000     0.631880000000     0.0389384  
H33      H      0.620930000000     0.180630000000     0.677790000000     0.0380122  
H34      H      0.685400000000     0.139650000000     0.707230000000     0.0398339  
H35      H      0.742800000000     0.130100000000     0.649970000000     0.0394846  
H36      H      0.627200000000     0.234930000000     0.661550000000     0.0419646  
H37      H      0.628210000000     0.179200000000     0.594710000000     0.0414458  
H38      H      0.669460000000     0.217260000000     0.595450000000     0.039372   
H39      H      0.731590000000     0.168830000000     0.723240000000     0.0429569  
H40      H      0.744140000000     0.186280000000     0.639340000000     0.0428697  
H41      H      0.747990000000     0.194440000000     0.399760000000     0.0417931  
H42      H      0.670650000000     0.219110000000     0.436170000000     0.0391236  
H43      H      0.630660000000     0.235920000000     0.367930000000     0.0419396  
H44      H      0.751940000000     0.138870000000     0.386450000000     0.0400824  
H45      H      0.744390000000     0.181010000000     0.314570000000     0.0417694  
H46      H      0.700140000000     0.146470000000     0.322890000000     0.0406578  
H47      H      0.630940000000     0.179440000000     0.433230000000     0.0417624  
H48      H      0.628660000000     0.181860000000     0.349710000000     0.0386154  
H49      H      0.646490000000     0.942260000000     0.350100000000     0.0385465  
H50      H      0.715900000000     0.984470000000     0.324240000000     0.0407368  
H51      H      0.763120000000     0.000930000000     0.389860000000     0.0403606  
H52      H      0.654110000000     0.890110000000     0.372690000000     0.0422983  
H53      H      0.644810000000     0.950180000000     0.433000000000     0.0420573  
H54      H      0.688330000000     0.915510000000     0.441270000000     0.0387343  
H55      H      0.763670000000     0.954230000000     0.321400000000     0.0421646  
H56      H      0.764070000000     0.946120000000     0.407190000000     0.0422536  
H57      H      0.758950000000     0.945930000000     0.624430000000     0.0419961  
H58      H      0.683690000000     0.915200000000     0.585890000000     0.0390507  
H59      H      0.646560000000     0.889470000000     0.652650000000     0.0422241  
H60      H      0.756430000000     0.000360000000     0.642870000000     0.0398825  
H61      H      0.754440000000     0.952330000000     0.710390000000     0.0422036  
H62      H      0.706570000000     0.982100000000     0.705380000000     0.0400004  
H63      H      0.640230000000     0.950170000000     0.592830000000     0.0421372  
H64      H      0.639340000000     0.941520000000     0.675780000000     0.0382828  
H65      H      0.138820000000     0.784490000000     0.426310000000     0.040138   
H66      H      0.109790000000     0.861570000000     0.396610000000     0.0412964  
H67      H      0.094190000000     0.860420000000     0.312100000000     0.041678   
H68      H      0.101050000000     0.742760000000     0.427500000000     0.0424182  
H69      H      0.149370000000     0.742910000000     0.356420000000     0.0421474  
H70      H      0.094500000000     0.743180000000     0.343400000000     0.0392471  
H71      H      0.054170000000     0.864530000000     0.386410000000     0.0411236  
H72      H      0.059980000000     0.815670000000     0.319760000000     0.0403392  
H73      H      0.090520000000     0.747310000000     0.656100000000     0.0403442  
H74      H      0.060140000000     0.820440000000     0.683530000000     0.0391191  
H75      H      0.113960000000     0.874770000000     0.680470000000     0.0420514  
H76      H      0.096800000000     0.739090000000     0.593950000000     0.0416707  
H77      H      0.164370000000     0.755230000000     0.636000000000     0.0413945  
H78      H      0.152100000000     0.792230000000     0.590030000000     0.0411325  
H79      H      0.046600000000     0.858470000000     0.639480000000     0.041132   
H80      H      0.120090000000     0.867580000000     0.618580000000     0.0408001  
H81      H      0.841940000000     0.856590000000     0.634270000000     0.0402745  
H82      H      0.810740000000     0.780670000000     0.600190000000     0.0421114  
H83      H      0.869370000000     0.732910000000     0.586880000000     0.04052    
H84      H      0.857490000000     0.855970000000     0.694510000000     0.0422883  
H85      H      0.917320000000     0.850970000000     0.637870000000     0.0413124  
H86      H      0.914430000000     0.808190000000     0.678750000000     0.0384507  
H87      H      0.808220000000     0.738970000000     0.642900000000     0.0409397  
H88      H      0.884270000000     0.734970000000     0.647760000000     0.0406752  
H89      H      0.903040000000     0.743890000000     0.357540000000     0.0405541  
H90      H      0.923370000000     0.856060000000     0.372900000000     0.0385676  
H91      H      0.900540000000     0.812820000000     0.305590000000     0.0400383  
H92      H      0.880970000000     0.734250000000     0.414420000000     0.0414002  
H93      H      0.826600000000     0.736860000000     0.350910000000     0.0385625  
H94      H      0.818420000000     0.775580000000     0.395690000000     0.0451561  
H95      H      0.871560000000     0.856160000000     0.396880000000     0.0438662  
H96      H      0.868260000000     0.859070000000     0.310620000000     0.0407784  
H97      H      0.261140000000     0.238290000000     0.416050000000     0.039505   
H98      H      0.185310000000     0.205910000000     0.383480000000     0.0417342  
H99      H      0.187250000000     0.194890000000     0.297970000000     0.0422348  
H100     H      0.304410000000     0.202620000000     0.412110000000     0.0422024  
H101     H      0.298910000000     0.257500000000     0.346460000000     0.0421197  
H102     H      0.303140000000     0.203550000000     0.328140000000     0.0385987  
H103     H      0.186520000000     0.150500000000     0.368960000000     0.0405547  
H104     H      0.234510000000     0.164190000000     0.303320000000     0.0398365  
H105     H      0.187310000000     0.206540000000     0.606040000000     0.0406497  
H106     H      0.265970000000     0.235340000000     0.581580000000     0.0401462  
H107     H      0.305850000000     0.243700000000     0.653490000000     0.0422374  
H108     H      0.184010000000     0.150820000000     0.618140000000     0.0415269  
H109     H      0.184570000000     0.194580000000     0.690820000000     0.0422046  
H110     H      0.228100000000     0.158430000000     0.687640000000     0.0392986  
H111     H      0.306770000000     0.196550000000     0.582340000000     0.0426777  
H112     H      0.301210000000     0.188480000000     0.666440000000     0.0388163  
H113     H      0.322590000000     0.972550000000     0.576440000000     0.0402086  
H114     H      0.206230000000     0.961920000000     0.606520000000     0.0433383  
H115     H      0.208250000000     0.966760000000     0.693330000000     0.0420666  
H116     H      0.319360000000     0.998150000000     0.632370000000     0.0415544  
H117     H      0.285110000000     0.910460000000     0.605180000000     0.0441686  
H118     H      0.326320000000     0.921940000000     0.645630000000     0.038904   
H119     H      0.204290000000     0.015610000000     0.626570000000     0.039278   
H120     H      0.254310000000     0.999190000000     0.690710000000     0.0408023  
H121     H      0.313390000000     0.979410000000     0.350020000000     0.0403769  
H122     H      0.241040000000     0.008080000000     0.319270000000     0.0392014  
H123     H      0.186900000000     0.953650000000     0.320910000000     0.0420783  
H124     H      0.318630000000     0.971810000000     0.412410000000     0.0404003  
H125     H      0.305770000000     0.904230000000     0.365840000000     0.0407509  
H126     H      0.268210000000     0.914090000000     0.411620000000     0.0413566  
H127     H      0.201780000000     0.021450000000     0.361740000000     0.040225   
H128     H      0.193600000000     0.946910000000     0.382770000000     0.0413554  
H129     H      0.725330000000     0.503440000000     0.182620000000     0.0378844  
H130     H      0.798860000000     0.467990000000     0.163680000000     0.0402177  
H131     H      0.793560000000     0.391620000000     0.151680000000     0.0414791  
H132     H      0.688040000000     0.506170000000     0.135930000000     0.0423286  
H133     H      0.677580000000     0.446600000000     0.195280000000     0.0422862  
H134     H      0.678610000000     0.431200000000     0.135050000000     0.0394939  
H135     H      0.809170000000     0.454760000000     0.103370000000     0.0426383  
H136     H      0.756210000000     0.398820000000     0.105100000000     0.0426212  
H137     H      0.793460000000     0.627480000000     0.152880000000     0.0378275  
H138     H      0.703960000000     0.693250000000     0.102660000000     0.044165   
H139     H      0.733050000000     0.765860000000     0.108760000000     0.0388411  
H140     H      0.819880000000     0.674350000000     0.133320000000     0.0428423  
H141     H      0.738300000000     0.670370000000     0.191500000000     0.0439176  
H142     H      0.788840000000     0.686640000000     0.212040000000     0.0367442  
H143     H      0.734060000000     0.705980000000     0.051470000000     0.0375524  
H144     H      0.785230000000     0.746150000000     0.099940000000     0.0427291  
H145     H      0.702410000000     0.690470000000     0.872910000000     0.0412716  
H146     H      0.775760000000     0.729590000000     0.910360000000     0.0417282  
H147     H      0.827390000000     0.674160000000     0.921870000000     0.0408213  
H148     H      0.706490000000     0.677640000000     0.811990000000     0.0428621  
H149     H      0.717160000000     0.615600000000     0.865230000000     0.0406239  
H150     H      0.760180000000     0.625950000000     0.826590000000     0.0377683  
H151     H      0.816340000000     0.736610000000     0.867500000000     0.0412939  
H152     H      0.826960000000     0.660900000000     0.860370000000     0.0396069  
H153     H      0.775630000000     0.385240000000     0.902020000000     0.0444128  
H154     H      0.699430000000     0.446130000000     0.816390000000     0.041861   
H155     H      0.699950000000     0.442620000000     0.903300000000     0.0433498  
H156     H      0.815750000000     0.393760000000     0.859380000000     0.0389977  
H157     H      0.817920000000     0.444740000000     0.928270000000     0.0404539  
H158     H      0.814520000000     0.470130000000     0.872260000000     0.0411213  
H159     H      0.747800000000     0.475050000000     0.816540000000     0.0399752  
H160     H      0.701440000000     0.496010000000     0.882330000000     0.0394964  
H161     H      0.596870000000     0.906750000000     0.179960000000     0.0386093  
H162     H      0.565600000000     0.834200000000     0.204460000000     0.0394549  
H163     H      0.553830000000     0.786990000000     0.137730000000     0.0412041  
H164     H      0.650350000000     0.908660000000     0.161080000000     0.0423398  
H165     H      0.596250000000     0.910090000000     0.095790000000     0.0423942  
H166     H      0.634640000000     0.869150000000     0.090990000000     0.0391787  
H167     H      0.600180000000     0.789290000000     0.207100000000     0.0426197  
H168     H      0.608260000000     0.789850000000     0.121460000000     0.0412022  
H169     H      0.313370000000     0.873320000000     0.101730000000     0.0417601  
H170     H      0.343970000000     0.795960000000     0.133380000000     0.0408086  
H171     H      0.419040000000     0.801940000000     0.146630000000     0.0410201  
H172     H      0.308630000000     0.912880000000     0.146630000000     0.0407105  
H173     H      0.373010000000     0.920610000000     0.094710000000     0.0407718  
H174     H      0.384130000000     0.916750000000     0.156520000000     0.0401252  
H175     H      0.354710000000     0.793220000000     0.194860000000     0.0425811  
H176     H      0.411150000000     0.843860000000     0.187940000000     0.0386788  
H177     H      0.369970000000     0.914550000000     0.929810000000     0.0400945  
H178     H      0.360980000000     0.796770000000     0.906550000000     0.0430238  
H179     H      0.362700000000     0.793880000000     0.819870000000     0.040921   
H180     H      0.393760000000     0.910140000000     0.873100000000     0.0421479  
H181     H      0.309330000000     0.872360000000     0.904870000000     0.0434686  
H182     H      0.317280000000     0.914190000000     0.863600000000     0.0395651  
H183     H      0.413660000000     0.793820000000     0.884940000000     0.0397367  
H184     H      0.395650000000     0.839820000000     0.817610000000     0.0415941  
H185     H      0.569780000000     0.827020000000     0.822900000000     0.0406571  
H186     H      0.607940000000     0.898600000000     0.850440000000     0.0388742  
H187     H      0.600830000000     0.900900000000     0.933830000000     0.0422382  
H188     H      0.601290000000     0.779780000000     0.823220000000     0.0414512  
H189     H      0.551050000000     0.781670000000     0.889300000000     0.0404419  
H190     H      0.604650000000     0.780550000000     0.909050000000     0.0414496  
H191     H      0.659670000000     0.893320000000     0.873790000000     0.0422204  
H192     H      0.634960000000     0.856720000000     0.941790000000     0.038849   
H193     H      0.208450000000     0.647450000000     0.173990000000     0.0382481  
H194     H      0.137970000000     0.682030000000     0.145610000000     0.0403316  
H195     H      0.146800000000     0.758010000000     0.135600000000     0.0413813  
H196     H      0.249000000000     0.639270000000     0.131530000000     0.0409138  
H197     H      0.261000000000     0.701480000000     0.184400000000     0.0420147  
H198     H      0.259970000000     0.714680000000     0.123410000000     0.0400902  
H199     H      0.133560000000     0.694890000000     0.084230000000     0.0416759  
H200     H      0.186290000000     0.750260000000     0.091380000000     0.0416269  
H201     H      0.236730000000     0.461240000000     0.109360000000     0.0437065  
H202     H      0.121420000000     0.467790000000     0.072350000000     0.0401274  
H203     H      0.157630000000     0.406980000000     0.105090000000     0.0445611  
H204     H      0.235980000000     0.515340000000     0.128090000000     0.0394574  
H205     H      0.230230000000     0.468630000000     0.195910000000     0.042515   
H206     H      0.182860000000     0.498500000000     0.188980000000     0.0401621  
H207     H      0.121510000000     0.494910000000     0.127460000000     0.0411869  
H208     H      0.115700000000     0.419480000000     0.144120000000     0.0389029  
H209     H      0.135290000000     0.420340000000     0.841990000000     0.038852   
H210     H      0.209230000000     0.494830000000     0.792460000000     0.0405686  
H211     H      0.251000000000     0.521870000000     0.858790000000     0.0385162  
H212     H      0.173910000000     0.415480000000     0.887120000000     0.0448935  
H213     H      0.140290000000     0.497980000000     0.843660000000     0.0408398  
H214     H      0.130930000000     0.478410000000     0.901800000000     0.0414515  
H215     H      0.255650000000     0.463500000000     0.799920000000     0.0409081  
H216     H      0.251910000000     0.470790000000     0.885740000000     0.0440901  
H217     H      0.219550000000     0.666900000000     0.810810000000     0.0403043  
H218     H      0.147520000000     0.703450000000     0.832040000000     0.0390266  
H219     H      0.143160000000     0.704510000000     0.916070000000     0.0423968  
H220     H      0.265270000000     0.700220000000     0.808030000000     0.0416837  
H221     H      0.264620000000     0.656260000000     0.879670000000     0.0409675  
H222     H      0.262550000000     0.711820000000     0.893320000000     0.0415422  
H223     H      0.148830000000     0.757850000000     0.849180000000     0.042232   
H224     H      0.185330000000     0.741460000000     0.920680000000     0.039923   
H225     H      0.385700000000     0.320120000000     0.176230000000     0.0389334  
H226     H      0.353530000000     0.246590000000     0.149880000000     0.0404249  
H227     H      0.279560000000     0.255220000000     0.130250000000     0.0414108  
H228     H      0.398000000000     0.357680000000     0.131310000000     0.0413146  
H229     H      0.331580000000     0.373910000000     0.174830000000     0.0419279  
H230     H      0.324280000000     0.367290000000     0.113050000000     0.0403181  
H231     H      0.346530000000     0.238280000000     0.087880000000     0.0415742  
H232     H      0.291970000000     0.292340000000     0.084460000000     0.0409984  
H233     H      0.550480000000     0.292590000000     0.196120000000     0.0408145  
H234     H      0.630470000000     0.225530000000     0.147930000000     0.0389226  
H235     H      0.554390000000     0.227170000000     0.137460000000     0.0414263  
H236     H      0.579410000000     0.341240000000     0.197930000000     0.0422133  
H237     H      0.529430000000     0.342430000000     0.133360000000     0.0393688  
H238     H      0.582070000000     0.343650000000     0.111240000000     0.043528   
H239     H      0.637830000000     0.267850000000     0.107210000000     0.0434876  
H240     H      0.577970000000     0.226280000000     0.080440000000     0.0394494  
H241     H      0.543380000000     0.310680000000     0.831520000000     0.0399172  
H242     H      0.566940000000     0.234290000000     0.859640000000     0.0405136  
H243     H      0.640920000000     0.236910000000     0.880870000000     0.0406211  
H244     H      0.531350000000     0.349010000000     0.875770000000     0.0412957  
H245     H      0.601110000000     0.360960000000     0.838500000000     0.041569   
H246     H      0.604700000000     0.351320000000     0.900220000000     0.0408098  
H247     H      0.571180000000     0.226000000000     0.921940000000     0.0412718  
H248     H      0.630660000000     0.274160000000     0.927220000000     0.0409865  
H249     H      0.381030000000     0.309580000000     0.817580000000     0.0405642  
H250     H      0.340620000000     0.239220000000     0.841760000000     0.0387438  
H251     H      0.342410000000     0.238830000000     0.925440000000     0.0419698  
H252     H      0.350060000000     0.356870000000     0.811230000000     0.0422187  
H253     H      0.391820000000     0.359150000000     0.883060000000     0.0411887  
H254     H      0.336600000000     0.358230000000     0.896390000000     0.042178   
H255     H      0.287250000000     0.244730000000     0.859920000000     0.0423393  
H256     H      0.306620000000     0.282120000000     0.929410000000     0.0391976  
N1       N      0.057670000000     0.353610000000     0.594240000000    -0.167798   
N2       N      0.126080000000     0.353280000000     0.658030000000    -0.167749   
N3       N      0.042680000000     0.363190000000     0.394420000000    -0.165589   
N4       N      0.114640000000     0.347850000000     0.340790000000    -0.164902   
N5       N      0.874830000000     0.349050000000     0.402400000000    -0.16655    
N6       N      0.804440000000     0.334540000000     0.346750000000    -0.166326   
N7       N      0.810010000000     0.321630000000     0.667080000000    -0.164442   
N8       N      0.879770000000     0.338180000000     0.608780000000    -0.164481   
N9       N      0.689000000000     0.156270000000     0.615110000000    -0.166656   
N10      N      0.679990000000     0.205490000000     0.695350000000    -0.16625    
N11      N      0.686860000000     0.210750000000     0.336910000000    -0.165875   
N12      N      0.693590000000     0.159380000000     0.416370000000    -0.16596    
N13      N      0.705670000000     0.976110000000     0.417930000000    -0.166313   
N14      N      0.708150000000     0.920070000000     0.342160000000    -0.16618    
N15      N      0.700340000000     0.918010000000     0.685440000000    -0.165956   
N16      N      0.700770000000     0.975410000000     0.610780000000    -0.165997   
N17      N      0.124040000000     0.801460000000     0.330120000000    -0.165696   
N18      N      0.077280000000     0.805220000000     0.412960000000    -0.165354   
N19      N      0.143890000000     0.816760000000     0.658340000000    -0.166261   
N20      N      0.068280000000     0.797860000000     0.614580000000    -0.166505   
N21      N      0.897200000000     0.790900000000     0.610090000000    -0.165288   
N22      N      0.826950000000     0.799700000000     0.668870000000    -0.164821   
N23      N      0.839590000000     0.800410000000     0.330960000000    -0.166527   
N24      N      0.902810000000     0.797390000000     0.401910000000    -0.166478   
N25      N      0.242860000000     0.229070000000     0.318540000000    -0.166026   
N26      N      0.243500000000     0.176450000000     0.397230000000    -0.166005   
N27      N      0.244760000000     0.222100000000     0.675290000000    -0.166637   
N28      N      0.243890000000     0.173520000000     0.593860000000    -0.166311   
N29      N      0.264820000000     0.935880000000     0.669940000000    -0.166299   
N30      N      0.262110000000     0.996320000000     0.595170000000    -0.166535   
N31      N      0.244690000000     0.924060000000     0.343260000000    -0.165877   
N32      N      0.261050000000     0.999900000000     0.389130000000    -0.166432   
N33      N      0.732440000000     0.412760000000     0.172530000000    -0.164753   
N34      N      0.749880000000     0.484690000000     0.117390000000    -0.164833   
N35      N      0.758610000000     0.729440000000     0.165290000000    -0.167165   
N36      N      0.762550000000     0.662270000000     0.098700000000    -0.167204   
N37      N      0.772500000000     0.642270000000     0.896850000000    -0.165783   
N38      N      0.757490000000     0.713830000000     0.841270000000    -0.164695   
N39      N      0.758640000000     0.472630000000     0.911900000000    -0.166443   
N40      N      0.754300000000     0.411420000000     0.838030000000    -0.16647    
N41      N      0.574880000000     0.846680000000     0.110050000000    -0.166471   
N42      N      0.628400000000     0.848650000000     0.187210000000    -0.166582   
N43      N      0.399230000000     0.861810000000     0.118070000000    -0.166028   
N44      N      0.325690000000     0.850850000000     0.170110000000    -0.165264   
N45      N      0.333620000000     0.852560000000     0.839490000000    -0.166571   
N46      N      0.395070000000     0.853780000000     0.912840000000    -0.16674    
N47      N      0.574920000000     0.839700000000     0.917770000000    -0.165815   
N48      N      0.632560000000     0.837240000000     0.843600000000    -0.165823   
N49      N      0.206280000000     0.735140000000     0.160010000000    -0.165987   
N50      N      0.190440000000     0.663780000000     0.105280000000    -0.16644    
N51      N      0.176630000000     0.434300000000     0.169450000000    -0.166203   
N52      N      0.180390000000     0.493460000000     0.093620000000    -0.166662   
N53      N      0.193040000000     0.501360000000     0.888300000000    -0.166447   
N54      N      0.197910000000     0.434320000000     0.821210000000    -0.166412   
N55      N      0.205170000000     0.679810000000     0.904010000000    -0.16581    
N56      N      0.206980000000     0.731360000000     0.824440000000    -0.165985   
N57      N      0.300810000000     0.316390000000     0.152880000000    -0.165474   
N58      N      0.376180000000     0.296660000000     0.107900000000    -0.165797   
N59      N      0.551070000000     0.285290000000     0.101170000000    -0.168172   
N60      N      0.613130000000     0.286540000000     0.172820000000    -0.167637   
N61      N      0.625570000000     0.300010000000     0.859180000000    -0.165411   
N62      N      0.547220000000     0.286480000000     0.900270000000    -0.165618   
N63      N      0.367600000000     0.300480000000     0.910260000000    -0.166841   
N64      N      0.316540000000     0.300360000000     0.831210000000    -0.166733   
O1       O      0.411470000000     0.260240000000     0.955610000000    -0.396315   
O2       O      0.505280000000     0.252300000000     0.051380000000    -0.396993   
O3       O      0.414830000000     0.258800000000     0.054780000000    -0.395448   
O4       O      0.502800000000     0.253360000000     0.951770000000    -0.393964   
O5       O      0.505660000000     0.323740000000     0.950800000000    -0.399326   
O6       O      0.421630000000     0.328870000000     0.057120000000    -0.399152   
O7       O      0.509590000000     0.322670000000     0.051540000000    -0.406531   
O8       O      0.417540000000     0.330440000000     0.956340000000    -0.405804   
O9       O      0.225790000000     0.622330000000     0.052850000000    -0.39992    
O10      O      0.227160000000     0.540130000000     0.944120000000    -0.398981   
O11      O      0.232950000000     0.629050000000     0.951700000000    -0.400609   
O12      O      0.220350000000     0.534080000000     0.045020000000    -0.401414   
O13      O      0.150790000000     0.538350000000     0.039770000000    -0.394798   
O14      O      0.163530000000     0.635360000000     0.947200000000    -0.395141   
O15      O      0.157550000000     0.544150000000     0.939580000000    -0.396422   
O16      O      0.156500000000     0.628810000000     0.046310000000    -0.397659   
O17      O      0.531700000000     0.880730000000     0.962950000000    -0.395933   
O18      O      0.440790000000     0.892140000000     0.061860000000    -0.395045   
O19      O      0.531430000000     0.884440000000     0.061650000000    -0.396694   
O20      O      0.440820000000     0.888120000000     0.961740000000    -0.395376   
O21      O      0.435410000000     0.817950000000     0.965640000000    -0.400773   
O22      O      0.525710000000     0.814290000000     0.064460000000    -0.402344   
O23      O      0.437810000000     0.821910000000     0.067220000000    -0.399816   
O24      O      0.523980000000     0.810720000000     0.964000000000    -0.399659   
O25      O      0.720810000000     0.530050000000     0.063310000000    -0.393771   
O26      O      0.732300000000     0.604680000000     0.948190000000    -0.397804   
O27      O      0.725090000000     0.517340000000     0.962400000000    -0.398368   
O28      O      0.727980000000     0.619790000000     0.047070000000    -0.397833   
O29      O      0.795850000000     0.608390000000     0.060680000000    -0.395486   
O30      O      0.794920000000     0.515900000000     0.961990000000    -0.395254   
O31      O      0.801390000000     0.606750000000     0.959210000000    -0.392685   
O32      O      0.789600000000     0.518540000000     0.062080000000    -0.395877   
O33      O      0.292760000000     0.042770000000     0.443250000000    -0.395044   
O34      O      0.283460000000     0.132850000000     0.544240000000    -0.397224   
O35      O      0.293040000000     0.042040000000     0.543410000000    -0.39613    
O36      O      0.283440000000     0.134280000000     0.444960000000    -0.395819   
O37      O      0.214050000000     0.126450000000     0.444620000000    -0.400882   
O38      O      0.223480000000     0.035480000000     0.543520000000    -0.399708   
O39      O      0.214190000000     0.124390000000     0.545470000000    -0.401433   
O40      O      0.223060000000     0.038110000000     0.441770000000    -0.401903   
O41      O      0.944090000000     0.762200000000     0.454720000000    -0.397134   
O42      O      0.029480000000     0.762330000000     0.559900000000    -0.396351   
O43      O      0.939060000000     0.758700000000     0.555230000000    -0.393276   
O44      O      0.034250000000     0.766020000000     0.460480000000    -0.393904   
O45      O      0.029060000000     0.836260000000     0.461280000000    -0.397817   
O46      O      0.938150000000     0.829020000000     0.559830000000    -0.39836    
O47      O      0.025880000000     0.832640000000     0.562880000000    -0.399193   
O48      O      0.940710000000     0.832520000000     0.457770000000    -0.398038   
O49      O      0.735290000000     0.026030000000     0.464960000000    -0.403505   
O50      O      0.726980000000     0.114070000000     0.566430000000    -0.4033     
O51      O      0.732810000000     0.025180000000     0.565400000000    -0.402115   
O52      O      0.729440000000     0.115200000000     0.465240000000    -0.401377   
O53      O      0.659660000000     0.112170000000     0.464050000000    -0.395173   
O54      O      0.663260000000     0.019320000000     0.562490000000    -0.395361   
O55      O      0.657210000000     0.111500000000     0.563090000000    -0.395972   
O56      O      0.665720000000     0.019830000000     0.463820000000    -0.396098   
O57      O      0.914890000000     0.379100000000     0.555390000000    -0.394789   
O58      O      0.004790000000     0.392250000000     0.454990000000    -0.390624   
O59      O      0.914490000000     0.385240000000     0.455660000000    -0.397449   
O60      O      0.004030000000     0.386440000000     0.556200000000    -0.397026   
O61      O      0.015790000000     0.317920000000     0.543210000000    -0.398824   
O62      O      0.917630000000     0.314840000000     0.454070000000    -0.399843   
O63      O      0.004190000000     0.322470000000     0.444230000000    -0.39826    
O64      O      0.926390000000     0.309690000000     0.555880000000    -0.393521   
O65      O      0.234380000000     0.301800000000     0.179000000000    -0.39534    
O66      O      0.139490000000     0.321820000000     0.271170000000    -0.397218   
O67      O      0.168940000000     0.364050000000     0.187300000000    -0.396444   
O68      O      0.203630000000     0.260980000000     0.261800000000    -0.400947   
O69      O      0.247990000000     0.300230000000     0.303500000000    -0.395723   
O70      O      0.210200000000     0.404140000000     0.231930000000    -0.399483   
O71      O      0.181410000000     0.361840000000     0.315080000000    -0.394768   
O72      O      0.275200000000     0.344690000000     0.220860000000    -0.398114   
O73      O      0.640720000000     0.318000000000     0.237490000000    -0.405249   
O74      O      0.737880000000     0.347750000000     0.321140000000    -0.399784   
O75      O      0.700760000000     0.383380000000     0.237140000000    -0.394838   
O76      O      0.676290000000     0.280900000000     0.319320000000    -0.393877   
O77      O      0.718720000000     0.242210000000     0.274510000000    -0.402037   
O78      O      0.745370000000     0.344550000000     0.195280000000    -0.397867   
O79      O      0.779410000000     0.305920000000     0.278790000000    -0.400863   
O80      O      0.682520000000     0.279140000000     0.192080000000    -0.397611   
O81      O      0.691280000000     0.281760000000     0.832890000000    -0.391694   
O82      O      0.785860000000     0.295640000000     0.737480000000    -0.392398   
O83      O      0.759340000000     0.340930000000     0.821010000000    -0.398258   
O84      O      0.719540000000     0.237780000000     0.751190000000    -0.403816   
O85      O      0.676500000000     0.277290000000     0.708120000000    -0.394711   
O86      O      0.717910000000     0.381610000000     0.777210000000    -0.3983     
O87      O      0.744340000000     0.336990000000     0.694620000000    -0.397131   
O88      O      0.651350000000     0.324580000000     0.789830000000    -0.400017   
O89      O      0.698240000000     0.860710000000     0.200290000000    -0.39751    
O90      O      0.806220000000     0.831510000000     0.268440000000    -0.395988   
O91      O      0.762020000000     0.798760000000     0.186480000000    -0.399714   
O92      O      0.742380000000     0.892650000000     0.279180000000    -0.403976   
O93      O      0.701570000000     0.850100000000     0.321440000000    -0.394327   
O94      O      0.734390000000     0.752150000000     0.236370000000    -0.395492   
O95      O      0.769990000000     0.790230000000     0.317130000000    -0.400145   
O96      O      0.665510000000     0.810550000000     0.241030000000    -0.401173   
O97      O      0.662280000000     0.804500000000     0.780570000000    -0.39989    
O98      O      0.760490000000     0.783550000000     0.693690000000    -0.395306   
O99      O      0.726420000000     0.743310000000     0.776580000000    -0.396699   
O100     O      0.694760000000     0.846630000000     0.699590000000    -0.394176   
O101     O      0.736760000000     0.885920000000     0.744210000000    -0.402087   
O102     O      0.767900000000     0.783260000000     0.821080000000    -0.396324   
O103     O      0.800630000000     0.824940000000     0.738150000000    -0.396787   
O104     O      0.702020000000     0.846290000000     0.825020000000    -0.395234   
O105     O      0.295820000000     0.821610000000     0.235150000000    -0.400421   
O106     O      0.193410000000     0.791950000000     0.311970000000    -0.396534   
O107     O      0.233660000000     0.759840000000     0.228780000000    -0.399507   
O108     O      0.257690000000     0.856290000000     0.318560000000    -0.395346   
O109     O      0.217700000000     0.898580000000     0.274920000000    -0.401301   
O110     O      0.193330000000     0.802380000000     0.185850000000    -0.397943   
O111     O      0.155160000000     0.836540000000     0.269260000000    -0.398244   
O112     O      0.257820000000     0.865630000000     0.191430000000    -0.394297   
O113     O      0.265770000000     0.864360000000     0.816610000000    -0.396517   
O114     O      0.170210000000     0.845210000000     0.725710000000    -0.40064    
O115     O      0.199890000000     0.801930000000     0.807830000000    -0.39663    
O116     O      0.233990000000     0.905770000000     0.734100000000    -0.399864   
O117     O      0.274670000000     0.866010000000     0.688390000000    -0.395866   
O118     O      0.244400000000     0.763030000000     0.765890000000    -0.399441   
O119     O      0.210570000000     0.802290000000     0.683300000000    -0.397137   
O120     O      0.307510000000     0.825340000000     0.771270000000    -0.399262   
O121     O      0.289050000000     0.335730000000     0.768990000000    -0.404713   
O122     O      0.195170000000     0.356230000000     0.677590000000    -0.400702   
O123     O      0.228470000000     0.400320000000     0.758960000000    -0.397689   
O124     O      0.256870000000     0.292080000000     0.690020000000    -0.399455   
O125     O      0.207210000000     0.258550000000     0.730370000000    -0.398562   
O126     O      0.188340000000     0.363680000000     0.808400000000    -0.397566   
O127     O      0.149580000000     0.328330000000     0.728200000000    -0.398038   
O128     O      0.247230000000     0.293920000000     0.810950000000    -0.396212   


