data_structure

_audit_creation_method RASPA-1.0
_audit_creation_date 2023-5-19
_audit_author_name 'Poobodin Mano'

_cell_length_a    42.8554
_cell_length_b    43.158
_cell_length_c    42.4885
_cell_angle_alpha 90
_cell_angle_beta  90
_cell_angle_gamma 90
_cell_volume      78584.7

_symmetry_cell_setting          triclinic
_symmetry_space_group_name_Hall 'P 1'
_symmetry_space_group_name_H-M  'P 1'
_symmetry_Int_Tables_number     1

_symmetry_equiv_pos_as_xyz 'x,y,z'

loop_
_atom_site_label
_atom_site_type_symbol
_atom_site_fract_x
_atom_site_fract_y
_atom_site_fract_z
_atom_site_charge
C1       C      0.510050000000     0.055120000000     0.258050000000     0.403841   
C2       C      0.002600000000     0.432310000000     0.260300000000     0.404776   
C3       C      0.444470000000     0.996270000000     0.259990000000     0.407487   
C4       C      0.068080000000     0.491060000000     0.257310000000     0.40085    
C5       C      0.001560000000     0.182110000000     0.252270000000     0.397784   
C6       C      0.995960000000     0.305100000000     0.256630000000     0.401329   
C7       C      0.988740000000     0.245960000000     0.193860000000     0.40569    
C8       C      0.009340000000     0.240960000000     0.316900000000     0.403202   
C9       C      0.316730000000     0.003790000000     0.252040000000     0.397517   
C10      C      0.193410000000     0.007610000000     0.260290000000     0.403675   
C11      C      0.250500000000     0.006180000000     0.193600000000     0.394938   
C12      C      0.258250000000     0.003970000000     0.318510000000     0.399856   
C13      C      0.240290000000     0.008160000000     0.066390000000     0.404585   
C14      C      0.264230000000     0.494240000000     0.444490000000     0.400399   
C15      C      0.256430000000     0.062310000000     0.998530000000     0.40385    
C16      C      0.248250000000     0.439820000000     0.509850000000     0.40247    
C17      C      0.060860000000     0.243340000000     0.019900000000     0.397464   
C18      C      0.439130000000     0.247460000000     0.494140000000     0.397154   
C19      C      0.985610000000     0.250590000000     0.066610000000     0.400324   
C20      C      0.513990000000     0.239550000000     0.445190000000     0.399728   
C21      C      0.188240000000     0.250160000000     0.012490000000     0.39929    
C22      C      0.310640000000     0.249070000000     0.991330000000     0.404383   
C23      C      0.247910000000     0.188570000000     0.001960000000     0.397196   
C24      C      0.251510000000     0.311880000000     0.002260000000     0.396929   
C25      C      0.388990000000     0.228320000000     0.013380000000    -0.0155668  
C26      C      0.391250000000     0.275700000000     0.478570000000    -0.0249196  
C27      C      0.358140000000     0.219210000000     0.998400000000    -0.00617049 
C28      C      0.359600000000     0.266340000000     0.463850000000     0.035159   
C29      C      0.108230000000     0.267140000000     0.043510000000    -0.0116519  
C30      C      0.110100000000     0.213710000000     0.020940000000    -0.0240435  
C31      C      0.139960000000     0.274690000000     0.028410000000    -0.0127952  
C32      C      0.139330000000     0.222010000000     0.502010000000     0.0353726  
C33      C      0.276310000000     0.359780000000     0.022080000000    -0.0124643  
C34      C      0.238820000000     0.361490000000     0.476750000000    -0.0248127  
C35      C      0.263360000000     0.390660000000     0.034220000000    -0.0121003  
C36      C      0.223590000000     0.390680000000     0.490390000000     0.0355052  
C37      C      0.258200000000     0.139200000000     0.029370000000    -0.0128419  
C38      C      0.229410000000     0.139870000000     0.477530000000    -0.0255109  
C39      C      0.277270000000     0.111460000000     0.017900000000    -0.0109619  
C40      C      0.247440000000     0.110940000000     0.467270000000     0.0351151  
C41      C      0.293890000000     0.006760000000     0.396240000000    -0.0202388  
C42      C      0.250460000000     0.467710000000     0.395380000000    -0.0234139  
C43      C      0.278440000000     0.024110000000     0.368580000000    -0.0087525  
C44      C      0.234630000000     0.485120000000     0.368660000000     0.0343109  
C45      C      0.266210000000     0.529170000000     0.142960000000    -0.0133608  
C46      C      0.233510000000     0.480320000000     0.144750000000    -0.0247649  
C47      C      0.248360000000     0.039450000000     0.113630000000    -0.00812912 
C48      C      0.214450000000     0.992120000000     0.116540000000     0.0406024  
C49      C      0.040620000000     0.258930000000     0.397110000000    -0.0114808  
C50      C      0.014600000000     0.207220000000     0.397270000000    -0.0257774  
C51      C      0.526950000000     0.265950000000     0.364490000000    -0.0127007  
C52      C      0.497230000000     0.214920000000     0.366850000000     0.0362135  
C53      C      0.481780000000     0.281550000000     0.115420000000    -0.0121157  
C54      C      0.459240000000     0.228170000000     0.113180000000    -0.0231679  
C55      C      0.999520000000     0.273100000000     0.145380000000    -0.00727524 
C56      C      0.974980000000     0.219830000000     0.144450000000     0.0329466  
C57      C      0.118420000000     0.476470000000     0.281690000000    -0.012306   
C58      C      0.116650000000     0.000680000000     0.227770000000    -0.0322993  
C59      C      0.145990000000     0.497270000000     0.290190000000    -0.0092702  
C60      C      0.142570000000     0.023330000000     0.237110000000     0.0372954  
C61      C      0.365040000000     0.480060000000     0.231440000000    -0.0118621  
C62      C      0.366530000000     0.030010000000     0.262140000000    -0.0247338  
C63      C      0.395840000000     0.470360000000     0.246850000000    -0.0111075  
C64      C      0.394980000000     0.018570000000     0.280410000000     0.0350536  
C65      C      0.012790000000     0.353160000000     0.230850000000    -0.0129805  
C66      C      0.468400000000     0.353730000000     0.269310000000    -0.0241974  
C67      C      0.025210000000     0.383340000000     0.244400000000    -0.0109896  
C68      C      0.480840000000     0.383980000000     0.283820000000     0.0353813  
C69      C      0.478180000000     0.131710000000     0.265300000000    -0.011168   
C70      C      0.024130000000     0.135020000000     0.228270000000    -0.0252071  
C71      C      0.493230000000     0.103890000000     0.281300000000    -0.00999254 
C72      C      0.036500000000     0.104240000000     0.241730000000     0.0341535  
C73      C      0.510050000000     0.055120000000     0.758050000000     0.403832   
C74      C      0.002600000000     0.432310000000     0.760300000000     0.404769   
C75      C      0.444470000000     0.996270000000     0.759990000000     0.40748    
C76      C      0.068080000000     0.491060000000     0.757300000000     0.400851   
C77      C      0.001560000000     0.182110000000     0.752270000000     0.397786   
C78      C      0.995960000000     0.305100000000     0.756630000000     0.401279   
C79      C      0.988740000000     0.245960000000     0.693860000000     0.405454   
C80      C      0.009340000000     0.240960000000     0.816900000000     0.403315   
C81      C      0.316730000000     0.003790000000     0.752040000000     0.397514   
C82      C      0.193410000000     0.007610000000     0.760290000000     0.403665   
C83      C      0.250500000000     0.006180000000     0.693600000000     0.39493    
C84      C      0.258250000000     0.003970000000     0.818520000000     0.399761   
C85      C      0.240290000000     0.008160000000     0.566390000000     0.404489   
C86      C      0.264230000000     0.494240000000     0.944490000000     0.400395   
C87      C      0.256430000000     0.062310000000     0.498530000000     0.40214    
C88      C      0.248250000000     0.439820000000     0.009850000000     0.402522   
C89      C      0.060860000000     0.243340000000     0.519900000000     0.397627   
C90      C      0.439130000000     0.247460000000     0.994140000000     0.398604   
C91      C      0.985610000000     0.250590000000     0.566610000000     0.400452   
C92      C      0.513990000000     0.239550000000     0.945200000000     0.399605   
C93      C      0.188240000000     0.250160000000     0.512490000000     0.401046   
C94      C      0.310640000000     0.249070000000     0.491330000000     0.402573   
C95      C      0.247910000000     0.188570000000     0.501960000000     0.39887    
C96      C      0.251510000000     0.311880000000     0.502260000000     0.398798   
C97      C      0.388990000000     0.228320000000     0.513380000000    -0.012755   
C98      C      0.391250000000     0.275700000000     0.978570000000    -0.0249914  
C99      C      0.358140000000     0.219210000000     0.498400000000    -0.00952318 
C100     C      0.359600000000     0.266340000000     0.963850000000     0.0353353  
C101     C      0.108230000000     0.267140000000     0.543510000000    -0.011679   
C102     C      0.110100000000     0.213710000000     0.520940000000    -0.0247339  
C103     C      0.139960000000     0.274690000000     0.528410000000    -0.0126588  
C104     C      0.139330000000     0.222010000000     0.002010000000     0.0326577  
C105     C      0.276310000000     0.359780000000     0.522080000000    -0.012351   
C106     C      0.238820000000     0.361490000000     0.976740000000    -0.0245156  
C107     C      0.263360000000     0.390660000000     0.534220000000    -0.0120648  
C108     C      0.223590000000     0.390680000000     0.990390000000     0.0377889  
C109     C      0.258200000000     0.139200000000     0.529370000000    -0.0129137  
C110     C      0.229410000000     0.139870000000     0.977530000000    -0.0245298  
C111     C      0.277270000000     0.111460000000     0.517900000000    -0.00998284 
C112     C      0.247440000000     0.110940000000     0.967270000000     0.0350192  
C113     C      0.293890000000     0.006760000000     0.896240000000    -0.020261   
C114     C      0.250460000000     0.467710000000     0.895380000000    -0.0233904  
C115     C      0.278440000000     0.024110000000     0.868580000000    -0.00872857 
C116     C      0.234630000000     0.485120000000     0.868660000000     0.0343062  
C117     C      0.266210000000     0.529170000000     0.642960000000    -0.0133646  
C118     C      0.233510000000     0.480320000000     0.644750000000    -0.0247475  
C119     C      0.248360000000     0.039450000000     0.613630000000    -0.00812725 
C120     C      0.214450000000     0.992120000000     0.616530000000     0.0406303  
C121     C      0.040620000000     0.258930000000     0.897110000000    -0.0115162  
C122     C      0.014600000000     0.207220000000     0.897270000000    -0.0258089  
C123     C      0.526950000000     0.265950000000     0.864490000000    -0.0126822  
C124     C      0.497230000000     0.214920000000     0.866840000000     0.036249   
C125     C      0.481780000000     0.281550000000     0.615420000000    -0.0121152  
C126     C      0.459240000000     0.228170000000     0.613180000000    -0.0231645  
C127     C      0.999520000000     0.273100000000     0.645380000000    -0.00728163 
C128     C      0.974980000000     0.219830000000     0.644450000000     0.0329376  
C129     C      0.118420000000     0.476470000000     0.781690000000    -0.0122501  
C130     C      0.116650000000     0.000680000000     0.727770000000    -0.0323207  
C131     C      0.145990000000     0.497270000000     0.790190000000    -0.0093219  
C132     C      0.142570000000     0.023330000000     0.737110000000     0.0372923  
C133     C      0.365040000000     0.480060000000     0.731440000000    -0.0118648  
C134     C      0.366530000000     0.030010000000     0.762140000000    -0.0247364  
C135     C      0.395840000000     0.470360000000     0.746850000000    -0.0111099  
C136     C      0.394980000000     0.018570000000     0.780410000000     0.0350521  
C137     C      0.012790000000     0.353160000000     0.730850000000    -0.0129813  
C138     C      0.468400000000     0.353730000000     0.769310000000    -0.0242004  
C139     C      0.025210000000     0.383340000000     0.744400000000    -0.010993   
C140     C      0.480840000000     0.383980000000     0.783820000000     0.0353751  
C141     C      0.478180000000     0.131710000000     0.765300000000    -0.0111652  
C142     C      0.024130000000     0.135020000000     0.728280000000    -0.0251065  
C143     C      0.493230000000     0.103890000000     0.781300000000    -0.0100028  
C144     C      0.036500000000     0.104240000000     0.741730000000     0.0341094  
C145     C      0.510050000000     0.555130000000     0.258050000000     0.403299   
C146     C      0.002600000000     0.932310000000     0.260300000000     0.404933   
C147     C      0.444470000000     0.496270000000     0.259990000000     0.406988   
C148     C      0.068080000000     0.991060000000     0.257310000000     0.401186   
C149     C      0.001560000000     0.682110000000     0.252270000000     0.397767   
C150     C      0.995960000000     0.805100000000     0.256630000000     0.401334   
C151     C      0.988740000000     0.745960000000     0.193860000000     0.405693   
C152     C      0.009340000000     0.740960000000     0.316900000000     0.403181   
C153     C      0.316730000000     0.503790000000     0.252040000000     0.401544   
C154     C      0.193410000000     0.507600000000     0.260290000000     0.407573   
C155     C      0.250500000000     0.506180000000     0.193600000000     0.398943   
C156     C      0.258250000000     0.503970000000     0.318510000000     0.403792   
C157     C      0.240290000000     0.508160000000     0.066390000000     0.405216   
C158     C      0.264230000000     0.994240000000     0.444490000000     0.399887   
C159     C      0.256430000000     0.562320000000     0.998530000000     0.404169   
C160     C      0.248250000000     0.939820000000     0.509850000000     0.401826   
C161     C      0.060860000000     0.743340000000     0.019900000000     0.397445   
C162     C      0.439130000000     0.747460000000     0.494140000000     0.396912   
C163     C      0.985610000000     0.750590000000     0.066610000000     0.400305   
C164     C      0.513990000000     0.739550000000     0.445190000000     0.39971    
C165     C      0.188240000000     0.750150000000     0.012490000000     0.399271   
C166     C      0.310640000000     0.749070000000     0.991330000000     0.404382   
C167     C      0.247910000000     0.688570000000     0.001960000000     0.397183   
C168     C      0.251510000000     0.811880000000     0.002260000000     0.396924   
C169     C      0.388990000000     0.728320000000     0.013380000000    -0.0155916  
C170     C      0.391250000000     0.775700000000     0.478570000000    -0.0249455  
C171     C      0.358140000000     0.719210000000     0.998400000000    -0.00616684 
C172     C      0.359600000000     0.766340000000     0.463850000000     0.0351472  
C173     C      0.108230000000     0.767140000000     0.043510000000    -0.0116441  
C174     C      0.110100000000     0.713710000000     0.020940000000    -0.0240687  
C175     C      0.139960000000     0.774690000000     0.028410000000    -0.0128535  
C176     C      0.139330000000     0.722010000000     0.502010000000     0.0353989  
C177     C      0.276310000000     0.859780000000     0.022080000000    -0.0124568  
C178     C      0.238820000000     0.861490000000     0.476750000000    -0.0248044  
C179     C      0.263360000000     0.890660000000     0.034220000000    -0.0121412  
C180     C      0.223590000000     0.890680000000     0.490390000000     0.0354488  
C181     C      0.258200000000     0.639200000000     0.029370000000    -0.0128538  
C182     C      0.229410000000     0.639870000000     0.477530000000    -0.0255232  
C183     C      0.277270000000     0.611460000000     0.017900000000    -0.0109503  
C184     C      0.247440000000     0.610940000000     0.467270000000     0.0351061  
C185     C      0.293890000000     0.506760000000     0.396240000000    -0.013393   
C186     C      0.250460000000     0.967710000000     0.395380000000    -0.0249     
C187     C      0.278440000000     0.524110000000     0.368580000000    -0.0102464  
C188     C      0.234630000000     0.985120000000     0.368660000000     0.0400815  
C189     C      0.266210000000     0.029170000000     0.142960000000    -0.0136801  
C190     C      0.233510000000     0.980320000000     0.144750000000    -0.0236895  
C191     C      0.248360000000     0.539450000000     0.113630000000    -0.00810011 
C192     C      0.214450000000     0.492120000000     0.116540000000     0.0351557  
C193     C      0.040620000000     0.758930000000     0.397110000000    -0.0114831  
C194     C      0.014600000000     0.707220000000     0.397270000000    -0.025804   
C195     C      0.526950000000     0.765950000000     0.364490000000    -0.0127346  
C196     C      0.497230000000     0.714920000000     0.366850000000     0.036198   
C197     C      0.481780000000     0.781550000000     0.115420000000    -0.0121354  
C198     C      0.459240000000     0.728170000000     0.113180000000    -0.0231749  
C199     C      0.999520000000     0.773100000000     0.145380000000    -0.00725254 
C200     C      0.974980000000     0.719830000000     0.144450000000     0.032928   
C201     C      0.118420000000     0.976470000000     0.281690000000    -0.0140087  
C202     C      0.116650000000     0.500680000000     0.227770000000    -0.0256179  
C203     C      0.145990000000     0.997270000000     0.290190000000    -0.00253898 
C204     C      0.142570000000     0.523330000000     0.237110000000     0.0359286  
C205     C      0.365040000000     0.980060000000     0.231440000000    -0.00941188 
C206     C      0.366530000000     0.530010000000     0.262140000000    -0.0249072  
C207     C      0.395840000000     0.970360000000     0.246850000000    -0.0113997  
C208     C      0.394980000000     0.518570000000     0.280410000000     0.0373779  
C209     C      0.012790000000     0.853160000000     0.230850000000    -0.0130039  
C210     C      0.468400000000     0.853730000000     0.269310000000    -0.0241974  
C211     C      0.025210000000     0.883340000000     0.244400000000    -0.0109876  
C212     C      0.480840000000     0.883980000000     0.283820000000     0.035351   
C213     C      0.478180000000     0.631710000000     0.265300000000    -0.0111668  
C214     C      0.024130000000     0.635020000000     0.228270000000    -0.025199   
C215     C      0.493230000000     0.603890000000     0.281300000000    -0.010002   
C216     C      0.036500000000     0.604240000000     0.241730000000     0.0340806  
C217     C      0.510050000000     0.555130000000     0.758050000000     0.40329    
C218     C      0.002600000000     0.932310000000     0.760300000000     0.404926   
C219     C      0.444470000000     0.496270000000     0.759990000000     0.40698    
C220     C      0.068080000000     0.991060000000     0.757300000000     0.401187   
C221     C      0.001560000000     0.682110000000     0.752270000000     0.397769   
C222     C      0.995960000000     0.805100000000     0.756630000000     0.401284   
C223     C      0.988740000000     0.745960000000     0.693860000000     0.405457   
C224     C      0.009340000000     0.740960000000     0.816900000000     0.403294   
C225     C      0.316730000000     0.503790000000     0.752040000000     0.401545   
C226     C      0.193410000000     0.507600000000     0.760290000000     0.407567   
C227     C      0.250500000000     0.506180000000     0.693600000000     0.398942   
C228     C      0.258250000000     0.503970000000     0.818520000000     0.403695   
C229     C      0.240290000000     0.508160000000     0.566390000000     0.405123   
C230     C      0.264230000000     0.994240000000     0.944490000000     0.399885   
C231     C      0.256430000000     0.562320000000     0.498530000000     0.402454   
C232     C      0.248250000000     0.939820000000     0.009850000000     0.40188    
C233     C      0.060860000000     0.743340000000     0.519900000000     0.397609   
C234     C      0.439130000000     0.747460000000     0.994140000000     0.398366   
C235     C      0.985610000000     0.750590000000     0.566610000000     0.400433   
C236     C      0.513990000000     0.739550000000     0.945200000000     0.399587   
C237     C      0.188240000000     0.750150000000     0.512490000000     0.401034   
C238     C      0.310640000000     0.749070000000     0.491330000000     0.402568   
C239     C      0.247910000000     0.688570000000     0.501960000000     0.398863   
C240     C      0.251510000000     0.811880000000     0.502260000000     0.398799   
C241     C      0.388990000000     0.728320000000     0.513380000000    -0.0127719  
C242     C      0.391250000000     0.775700000000     0.978570000000    -0.0250174  
C243     C      0.358140000000     0.719210000000     0.498400000000    -0.00952773 
C244     C      0.359600000000     0.766340000000     0.963850000000     0.0353239  
C245     C      0.108230000000     0.767140000000     0.543510000000    -0.0116711  
C246     C      0.110100000000     0.713710000000     0.520940000000    -0.0247613  
C247     C      0.139960000000     0.774690000000     0.528410000000    -0.0127168  
C248     C      0.139330000000     0.722010000000     0.002010000000     0.032675   
C249     C      0.276310000000     0.859780000000     0.522080000000    -0.0123433  
C250     C      0.238820000000     0.861490000000     0.976740000000    -0.0245064  
C251     C      0.263360000000     0.890660000000     0.534220000000    -0.0121056  
C252     C      0.223590000000     0.890680000000     0.990390000000     0.0377364  
C253     C      0.258200000000     0.639200000000     0.529370000000    -0.0129259  
C254     C      0.229410000000     0.639870000000     0.977530000000    -0.0245389  
C255     C      0.277270000000     0.611460000000     0.517900000000    -0.00996707 
C256     C      0.247440000000     0.610940000000     0.967270000000     0.0350098  
C257     C      0.293890000000     0.506760000000     0.896240000000    -0.0134213  
C258     C      0.250460000000     0.967710000000     0.895380000000    -0.0248752  
C259     C      0.278440000000     0.524110000000     0.868580000000    -0.0102209  
C260     C      0.234630000000     0.985120000000     0.868660000000     0.0400732  
C261     C      0.266210000000     0.029170000000     0.642960000000    -0.0136848  
C262     C      0.233510000000     0.980320000000     0.644750000000    -0.0236687  
C263     C      0.248360000000     0.539450000000     0.613630000000    -0.00809839 
C264     C      0.214450000000     0.492120000000     0.616530000000     0.0351669  
C265     C      0.040620000000     0.758930000000     0.897110000000    -0.0115185  
C266     C      0.014600000000     0.707220000000     0.897270000000    -0.0258354  
C267     C      0.526950000000     0.765950000000     0.864490000000    -0.0127161  
C268     C      0.497230000000     0.714920000000     0.866840000000     0.0362335  
C269     C      0.481780000000     0.781550000000     0.615420000000    -0.0121351  
C270     C      0.459240000000     0.728170000000     0.613180000000    -0.0231715  
C271     C      0.999520000000     0.773100000000     0.645380000000    -0.0072589  
C272     C      0.974980000000     0.719830000000     0.644450000000     0.032919   
C273     C      0.118420000000     0.976470000000     0.781690000000    -0.0139533  
C274     C      0.116650000000     0.500680000000     0.727770000000    -0.0256301  
C275     C      0.145990000000     0.997270000000     0.790190000000    -0.00258591 
C276     C      0.142570000000     0.523330000000     0.737110000000     0.0359235  
C277     C      0.365040000000     0.980060000000     0.731440000000    -0.0094122  
C278     C      0.366530000000     0.530010000000     0.762140000000    -0.0249099  
C279     C      0.395840000000     0.970360000000     0.746850000000    -0.0114023  
C280     C      0.394980000000     0.518570000000     0.780410000000     0.0373787  
C281     C      0.012790000000     0.853160000000     0.730850000000    -0.0130049  
C282     C      0.468400000000     0.853730000000     0.769310000000    -0.0242004  
C283     C      0.025210000000     0.883340000000     0.744400000000    -0.0109909  
C284     C      0.480840000000     0.883980000000     0.783820000000     0.0353448  
C285     C      0.478180000000     0.631710000000     0.765300000000    -0.0111641  
C286     C      0.024130000000     0.635020000000     0.728280000000    -0.0250984  
C287     C      0.493230000000     0.603890000000     0.781300000000    -0.0100123  
C288     C      0.036500000000     0.604240000000     0.741730000000     0.0340363  
C289     C      0.010050000000     0.055120000000     0.258050000000     0.403752   
C290     C      0.502600000000     0.432310000000     0.260300000000     0.404907   
C291     C      0.944470000000     0.996270000000     0.259990000000     0.407358   
C292     C      0.568070000000     0.491060000000     0.257310000000     0.400986   
C293     C      0.501570000000     0.182110000000     0.252270000000     0.398893   
C294     C      0.495960000000     0.305100000000     0.256630000000     0.400174   
C295     C      0.488740000000     0.245960000000     0.193860000000     0.404414   
C296     C      0.509340000000     0.240960000000     0.316900000000     0.404072   
C297     C      0.816730000000     0.003790000000     0.252040000000     0.397509   
C298     C      0.693410000000     0.007610000000     0.260290000000     0.403661   
C299     C      0.750500000000     0.006180000000     0.193600000000     0.394927   
C300     C      0.758250000000     0.003970000000     0.318510000000     0.399845   
C301     C      0.740290000000     0.008160000000     0.066390000000     0.404826   
C302     C      0.764220000000     0.494240000000     0.444490000000     0.400414   
C303     C      0.756430000000     0.062310000000     0.998530000000     0.403842   
C304     C      0.748250000000     0.439820000000     0.509850000000     0.402235   
C305     C      0.560860000000     0.243340000000     0.019900000000     0.397433   
C306     C      0.939140000000     0.247460000000     0.494140000000     0.39723    
C307     C      0.485610000000     0.250590000000     0.066610000000     0.40031    
C308     C      0.013990000000     0.239550000000     0.445190000000     0.399698   
C309     C      0.688240000000     0.250160000000     0.012490000000     0.399289   
C310     C      0.810640000000     0.249070000000     0.991330000000     0.404377   
C311     C      0.747910000000     0.188570000000     0.001960000000     0.397197   
C312     C      0.751510000000     0.311880000000     0.002260000000     0.396931   
C313     C      0.888990000000     0.228320000000     0.013380000000    -0.0155612  
C314     C      0.891250000000     0.275700000000     0.478570000000    -0.0249459  
C315     C      0.858140000000     0.219210000000     0.998400000000    -0.00618341 
C316     C      0.859600000000     0.266340000000     0.463850000000     0.0351628  
C317     C      0.608230000000     0.267140000000     0.043510000000    -0.0116541  
C318     C      0.610100000000     0.213710000000     0.020940000000    -0.024059   
C319     C      0.639960000000     0.274690000000     0.028410000000    -0.0127945  
C320     C      0.639330000000     0.222010000000     0.502010000000     0.0353735  
C321     C      0.776310000000     0.359780000000     0.022080000000    -0.0124649  
C322     C      0.738820000000     0.361490000000     0.476750000000    -0.0248126  
C323     C      0.763360000000     0.390660000000     0.034220000000    -0.0121109  
C324     C      0.723590000000     0.390680000000     0.490390000000     0.0354965  
C325     C      0.758200000000     0.139200000000     0.029370000000    -0.0128549  
C326     C      0.729410000000     0.139870000000     0.477530000000    -0.0255175  
C327     C      0.777270000000     0.111460000000     0.017900000000    -0.0109244  
C328     C      0.747440000000     0.110940000000     0.467270000000     0.0351232  
C329     C      0.793890000000     0.006760000000     0.396240000000    -0.0202571  
C330     C      0.750460000000     0.467710000000     0.395380000000    -0.0234272  
C331     C      0.778440000000     0.024110000000     0.368580000000    -0.00874976 
C332     C      0.734630000000     0.485120000000     0.368660000000     0.0343117  
C333     C      0.766210000000     0.529170000000     0.142960000000    -0.0133611  
C334     C      0.733510000000     0.480320000000     0.144750000000    -0.0247684  
C335     C      0.748360000000     0.039450000000     0.113630000000    -0.0081418  
C336     C      0.714450000000     0.992120000000     0.116540000000     0.0406224  
C337     C      0.540620000000     0.258930000000     0.397110000000    -0.0114089  
C338     C      0.514600000000     0.207220000000     0.397270000000    -0.0248004  
C339     C      0.026950000000     0.265950000000     0.364490000000    -0.0126885  
C340     C      0.997230000000     0.214920000000     0.366850000000     0.0375387  
C341     C      0.981780000000     0.281550000000     0.115420000000    -0.0127994  
C342     C      0.959240000000     0.228170000000     0.113180000000    -0.0231948  
C343     C      0.499520000000     0.273100000000     0.145380000000    -0.00970605 
C344     C      0.474980000000     0.219830000000     0.144450000000     0.0328505  
C345     C      0.618420000000     0.476470000000     0.281690000000    -0.0123223  
C346     C      0.616650000000     0.000680000000     0.227770000000    -0.0323852  
C347     C      0.645990000000     0.497270000000     0.290190000000    -0.00926683 
C348     C      0.642570000000     0.023330000000     0.237110000000     0.0373134  
C349     C      0.865040000000     0.480060000000     0.231440000000    -0.011876   
C350     C      0.866530000000     0.030010000000     0.262140000000    -0.0247319  
C351     C      0.895840000000     0.470360000000     0.246850000000    -0.0111098  
C352     C      0.894980000000     0.018570000000     0.280410000000     0.0350317  
C353     C      0.512790000000     0.353160000000     0.230850000000    -0.0111324  
C354     C      0.968400000000     0.353730000000     0.269310000000    -0.024271   
C355     C      0.525210000000     0.383340000000     0.244400000000    -0.011409   
C356     C      0.980830000000     0.383980000000     0.283820000000     0.0360059  
C357     C      0.978180000000     0.131710000000     0.265300000000    -0.0109498  
C358     C      0.524130000000     0.135020000000     0.228270000000    -0.0251125  
C359     C      0.993220000000     0.103890000000     0.281300000000    -0.00827538 
C360     C      0.536500000000     0.104240000000     0.241730000000     0.0341475  
C361     C      0.010050000000     0.055120000000     0.758050000000     0.403743   
C362     C      0.502600000000     0.432310000000     0.760300000000     0.4049     
C363     C      0.944470000000     0.996270000000     0.759990000000     0.407351   
C364     C      0.568070000000     0.491060000000     0.757300000000     0.400986   
C365     C      0.501570000000     0.182110000000     0.752270000000     0.398893   
C366     C      0.495960000000     0.305100000000     0.756630000000     0.400128   
C367     C      0.488740000000     0.245960000000     0.693860000000     0.404181   
C368     C      0.509340000000     0.240960000000     0.816900000000     0.404182   
C369     C      0.816730000000     0.003790000000     0.752040000000     0.397506   
C370     C      0.693410000000     0.007610000000     0.760290000000     0.403651   
C371     C      0.750500000000     0.006180000000     0.693600000000     0.394918   
C372     C      0.758250000000     0.003970000000     0.818520000000     0.399749   
C373     C      0.740290000000     0.008160000000     0.566390000000     0.404731   
C374     C      0.764220000000     0.494240000000     0.944490000000     0.400411   
C375     C      0.756430000000     0.062310000000     0.498530000000     0.402136   
C376     C      0.748250000000     0.439820000000     0.009850000000     0.402286   
C377     C      0.560860000000     0.243340000000     0.519900000000     0.397597   
C378     C      0.939140000000     0.247460000000     0.994140000000     0.398673   
C379     C      0.485610000000     0.250590000000     0.566610000000     0.400439   
C380     C      0.013990000000     0.239550000000     0.945200000000     0.399577   
C381     C      0.688240000000     0.250160000000     0.512490000000     0.401045   
C382     C      0.810640000000     0.249070000000     0.491330000000     0.402572   
C383     C      0.747910000000     0.188570000000     0.501960000000     0.398868   
C384     C      0.751510000000     0.311880000000     0.502260000000     0.398798   
C385     C      0.888990000000     0.228320000000     0.513380000000    -0.0127607  
C386     C      0.891250000000     0.275700000000     0.978570000000    -0.0250175  
C387     C      0.858140000000     0.219210000000     0.498400000000    -0.00952308 
C388     C      0.859600000000     0.266340000000     0.963850000000     0.0353385  
C389     C      0.608230000000     0.267140000000     0.543510000000    -0.011681   
C390     C      0.610100000000     0.213710000000     0.520940000000    -0.0247493  
C391     C      0.639960000000     0.274690000000     0.528410000000    -0.0126582  
C392     C      0.639330000000     0.222010000000     0.002010000000     0.0326589  
C393     C      0.776310000000     0.359780000000     0.522080000000    -0.0123518  
C394     C      0.738820000000     0.361490000000     0.976740000000    -0.0245166  
C395     C      0.763360000000     0.390660000000     0.534220000000    -0.0120755  
C396     C      0.723590000000     0.390680000000     0.990390000000     0.0377772  
C397     C      0.758200000000     0.139200000000     0.529370000000    -0.0129265  
C398     C      0.729410000000     0.139870000000     0.977530000000    -0.0245383  
C399     C      0.777270000000     0.111460000000     0.517900000000    -0.00994721 
C400     C      0.747440000000     0.110940000000     0.967270000000     0.0350274  
C401     C      0.793890000000     0.006760000000     0.896240000000    -0.0202792  
C402     C      0.750460000000     0.467710000000     0.895380000000    -0.0234037  
C403     C      0.778440000000     0.024110000000     0.868580000000    -0.0087259  
C404     C      0.734630000000     0.485120000000     0.868660000000     0.034307   
C405     C      0.766210000000     0.529170000000     0.642960000000    -0.0133649  
C406     C      0.733510000000     0.480320000000     0.644750000000    -0.0247509  
C407     C      0.748360000000     0.039450000000     0.613630000000    -0.00813997 
C408     C      0.714450000000     0.992120000000     0.616530000000     0.0406504  
C409     C      0.540620000000     0.258930000000     0.897110000000    -0.0114449  
C410     C      0.514600000000     0.207220000000     0.897270000000    -0.0248366  
C411     C      0.026950000000     0.265950000000     0.864490000000    -0.0126702  
C412     C      0.997230000000     0.214920000000     0.866840000000     0.0375676  
C413     C      0.981780000000     0.281550000000     0.615420000000    -0.0127977  
C414     C      0.959240000000     0.228170000000     0.613180000000    -0.0231914  
C415     C      0.499520000000     0.273100000000     0.645380000000    -0.00970784 
C416     C      0.474980000000     0.219830000000     0.644450000000     0.0328416  
C417     C      0.618420000000     0.476470000000     0.781690000000    -0.0122664  
C418     C      0.616650000000     0.000680000000     0.727770000000    -0.0324067  
C419     C      0.645990000000     0.497270000000     0.790190000000    -0.00931854 
C420     C      0.642570000000     0.023330000000     0.737110000000     0.0373103  
C421     C      0.865040000000     0.480060000000     0.731440000000    -0.0118788  
C422     C      0.866530000000     0.030010000000     0.762140000000    -0.0247344  
C423     C      0.895840000000     0.470360000000     0.746850000000    -0.0111121  
C424     C      0.894980000000     0.018570000000     0.780410000000     0.0350302  
C425     C      0.512790000000     0.353160000000     0.730850000000    -0.0111377  
C426     C      0.968400000000     0.353730000000     0.769310000000    -0.0242739  
C427     C      0.525210000000     0.383340000000     0.744400000000    -0.0114113  
C428     C      0.980830000000     0.383980000000     0.783820000000     0.0359979  
C429     C      0.978180000000     0.131710000000     0.765300000000    -0.0109474  
C430     C      0.524130000000     0.135020000000     0.728280000000    -0.0250122  
C431     C      0.993220000000     0.103890000000     0.781300000000    -0.00829142 
C432     C      0.536500000000     0.104240000000     0.741730000000     0.0341034  
C433     C      0.010050000000     0.555130000000     0.258050000000     0.403212   
C434     C      0.502600000000     0.932310000000     0.260300000000     0.405067   
C435     C      0.944470000000     0.496270000000     0.259990000000     0.406861   
C436     C      0.568070000000     0.991060000000     0.257310000000     0.401323   
C437     C      0.501570000000     0.682110000000     0.252270000000     0.39889    
C438     C      0.495960000000     0.805100000000     0.256630000000     0.40017    
C439     C      0.488740000000     0.745960000000     0.193860000000     0.404407   
C440     C      0.509340000000     0.740960000000     0.316900000000     0.404063   
C441     C      0.816730000000     0.503790000000     0.252040000000     0.401546   
C442     C      0.693410000000     0.507600000000     0.260290000000     0.407572   
C443     C      0.750500000000     0.506180000000     0.193600000000     0.398943   
C444     C      0.758250000000     0.503970000000     0.318510000000     0.403791   
C445     C      0.740290000000     0.508160000000     0.066390000000     0.40546    
C446     C      0.764220000000     0.994240000000     0.444490000000     0.399901   
C447     C      0.756430000000     0.562320000000     0.998530000000     0.404162   
C448     C      0.748250000000     0.939820000000     0.509850000000     0.401589   
C449     C      0.560860000000     0.743340000000     0.019900000000     0.397414   
C450     C      0.939140000000     0.747460000000     0.494140000000     0.396988   
C451     C      0.485610000000     0.750590000000     0.066610000000     0.400291   
C452     C      0.013990000000     0.739550000000     0.445190000000     0.399679   
C453     C      0.688240000000     0.750150000000     0.012490000000     0.399271   
C454     C      0.810640000000     0.749070000000     0.991330000000     0.404375   
C455     C      0.747910000000     0.688570000000     0.001960000000     0.397184   
C456     C      0.751510000000     0.811880000000     0.002260000000     0.396926   
C457     C      0.888990000000     0.728320000000     0.013380000000    -0.0155859  
C458     C      0.891250000000     0.775700000000     0.478570000000    -0.024972   
C459     C      0.858140000000     0.719210000000     0.998400000000    -0.00617982 
C460     C      0.859600000000     0.766340000000     0.463850000000     0.0351511  
C461     C      0.608230000000     0.767140000000     0.043510000000    -0.0116463  
C462     C      0.610100000000     0.713710000000     0.020940000000    -0.0240844  
C463     C      0.639960000000     0.774690000000     0.028410000000    -0.0128528  
C464     C      0.639330000000     0.722010000000     0.502010000000     0.0353997  
C465     C      0.776310000000     0.859780000000     0.022080000000    -0.0124574  
C466     C      0.738820000000     0.861490000000     0.476750000000    -0.0248043  
C467     C      0.763360000000     0.890660000000     0.034220000000    -0.0121519  
C468     C      0.723590000000     0.890680000000     0.490390000000     0.03544    
C469     C      0.758200000000     0.639200000000     0.029370000000    -0.0128668  
C470     C      0.729410000000     0.639870000000     0.477530000000    -0.0255299  
C471     C      0.777270000000     0.611460000000     0.017900000000    -0.0109128  
C472     C      0.747440000000     0.610940000000     0.467270000000     0.0351141  
C473     C      0.793890000000     0.506760000000     0.396240000000    -0.0133952  
C474     C      0.750460000000     0.967710000000     0.395380000000    -0.0249175  
C475     C      0.778440000000     0.524110000000     0.368580000000    -0.0102471  
C476     C      0.734630000000     0.985120000000     0.368660000000     0.0400983  
C477     C      0.766210000000     0.029170000000     0.142960000000    -0.0136814  
C478     C      0.733510000000     0.980320000000     0.144750000000    -0.0236906  
C479     C      0.748360000000     0.539450000000     0.113630000000    -0.00811285 
C480     C      0.714450000000     0.492120000000     0.116540000000     0.0351595  
C481     C      0.540620000000     0.758930000000     0.397110000000    -0.0114101  
C482     C      0.514600000000     0.707220000000     0.397270000000    -0.0248179  
C483     C      0.026950000000     0.765950000000     0.364490000000    -0.0127223  
C484     C      0.997230000000     0.714920000000     0.366850000000     0.0375352  
C485     C      0.981780000000     0.781550000000     0.115420000000    -0.012825   
C486     C      0.959240000000     0.728170000000     0.113180000000    -0.0232021  
C487     C      0.499520000000     0.773100000000     0.145380000000    -0.0097039  
C488     C      0.474980000000     0.719830000000     0.144450000000     0.0328311  
C489     C      0.618420000000     0.976470000000     0.281690000000    -0.0140312  
C490     C      0.616650000000     0.500680000000     0.227770000000    -0.025673   
C491     C      0.645990000000     0.997270000000     0.290190000000    -0.00251096 
C492     C      0.642570000000     0.523330000000     0.237110000000     0.0359398  
C493     C      0.865040000000     0.980060000000     0.231440000000    -0.00942069 
C494     C      0.866530000000     0.530010000000     0.262140000000    -0.0249054  
C495     C      0.895840000000     0.970360000000     0.246850000000    -0.011403   
C496     C      0.894980000000     0.518570000000     0.280410000000     0.0373598  
C497     C      0.512790000000     0.853160000000     0.230850000000    -0.0111403  
C498     C      0.968400000000     0.853730000000     0.269310000000    -0.0242718  
C499     C      0.525210000000     0.883340000000     0.244400000000    -0.0114103  
C500     C      0.980830000000     0.883980000000     0.283820000000     0.0359808  
C501     C      0.978180000000     0.631710000000     0.265300000000    -0.0109471  
C502     C      0.524130000000     0.635020000000     0.228270000000    -0.025103   
C503     C      0.993220000000     0.603890000000     0.281300000000    -0.00826182 
C504     C      0.536500000000     0.604240000000     0.241730000000     0.034074   
C505     C      0.010050000000     0.555130000000     0.758050000000     0.403203   
C506     C      0.502600000000     0.932310000000     0.760300000000     0.405059   
C507     C      0.944470000000     0.496270000000     0.759990000000     0.406854   
C508     C      0.568070000000     0.991060000000     0.757300000000     0.401324   
C509     C      0.501570000000     0.682110000000     0.752270000000     0.398889   
C510     C      0.495960000000     0.805100000000     0.756630000000     0.400124   
C511     C      0.488740000000     0.745960000000     0.693860000000     0.404173   
C512     C      0.509340000000     0.740960000000     0.816900000000     0.404172   
C513     C      0.816730000000     0.503790000000     0.752040000000     0.401547   
C514     C      0.693410000000     0.507600000000     0.760290000000     0.407566   
C515     C      0.750500000000     0.506180000000     0.693600000000     0.398941   
C516     C      0.758250000000     0.503970000000     0.818520000000     0.403694   
C517     C      0.740290000000     0.508160000000     0.566390000000     0.405366   
C518     C      0.764220000000     0.994240000000     0.944490000000     0.399899   
C519     C      0.756430000000     0.562320000000     0.498530000000     0.402452   
C520     C      0.748250000000     0.939820000000     0.009850000000     0.401643   
C521     C      0.560860000000     0.743340000000     0.519900000000     0.397579   
C522     C      0.939140000000     0.747460000000     0.994140000000     0.398435   
C523     C      0.485610000000     0.750590000000     0.566610000000     0.40042    
C524     C      0.013990000000     0.739550000000     0.945200000000     0.399558   
C525     C      0.688240000000     0.750150000000     0.512490000000     0.401032   
C526     C      0.810640000000     0.749070000000     0.491330000000     0.402567   
C527     C      0.747910000000     0.688570000000     0.501960000000     0.398861   
C528     C      0.751510000000     0.811880000000     0.502260000000     0.398798   
C529     C      0.888990000000     0.728320000000     0.513380000000    -0.0127776  
C530     C      0.891250000000     0.775700000000     0.978570000000    -0.0250436  
C531     C      0.858140000000     0.719210000000     0.498400000000    -0.00952767 
C532     C      0.859600000000     0.766340000000     0.963850000000     0.0353271  
C533     C      0.608230000000     0.767140000000     0.543510000000    -0.0116733  
C534     C      0.610100000000     0.713710000000     0.520940000000    -0.024777   
C535     C      0.639960000000     0.774690000000     0.528410000000    -0.0127162  
C536     C      0.639330000000     0.722010000000     0.002010000000     0.0326762  
C537     C      0.776310000000     0.859780000000     0.522080000000    -0.012344   
C538     C      0.738820000000     0.861490000000     0.976740000000    -0.0245074  
C539     C      0.763360000000     0.890660000000     0.534220000000    -0.0121164  
C540     C      0.723590000000     0.890680000000     0.990390000000     0.0377246  
C541     C      0.758200000000     0.639200000000     0.529370000000    -0.0129387  
C542     C      0.729410000000     0.639870000000     0.977530000000    -0.0245473  
C543     C      0.777270000000     0.611460000000     0.517900000000    -0.0099314  
C544     C      0.747440000000     0.610940000000     0.967270000000     0.035018   
C545     C      0.793890000000     0.506760000000     0.896240000000    -0.0134234  
C546     C      0.750460000000     0.967710000000     0.895380000000    -0.0248926  
C547     C      0.778440000000     0.524110000000     0.868580000000    -0.0102216  
C548     C      0.734630000000     0.985120000000     0.868660000000     0.04009    
C549     C      0.766210000000     0.029170000000     0.642960000000    -0.013686   
C550     C      0.733510000000     0.980320000000     0.644750000000    -0.0236698  
C551     C      0.748360000000     0.539450000000     0.613630000000    -0.00811116 
C552     C      0.714450000000     0.492120000000     0.616530000000     0.0351707  
C553     C      0.540620000000     0.758930000000     0.897110000000    -0.0114461  
C554     C      0.514600000000     0.707220000000     0.897270000000    -0.024854   
C555     C      0.026950000000     0.765950000000     0.864490000000    -0.0127039  
C556     C      0.997230000000     0.714920000000     0.866840000000     0.0375641  
C557     C      0.981780000000     0.781550000000     0.615420000000    -0.0128234  
C558     C      0.959240000000     0.728170000000     0.613180000000    -0.0231987  
C559     C      0.499520000000     0.773100000000     0.645380000000    -0.00970567 
C560     C      0.474980000000     0.719830000000     0.644450000000     0.0328221  
C561     C      0.618420000000     0.976470000000     0.781690000000    -0.0139759  
C562     C      0.616650000000     0.500680000000     0.727770000000    -0.0256852  
C563     C      0.645990000000     0.997270000000     0.790190000000    -0.0025579  
C564     C      0.642570000000     0.523330000000     0.737110000000     0.0359348  
C565     C      0.865040000000     0.980060000000     0.731440000000    -0.00942101 
C566     C      0.866530000000     0.530010000000     0.762140000000    -0.0249081  
C567     C      0.895840000000     0.970360000000     0.746850000000    -0.0114055  
C568     C      0.894980000000     0.518570000000     0.780410000000     0.0373606  
C569     C      0.512790000000     0.853160000000     0.730850000000    -0.0111456  
C570     C      0.968400000000     0.853730000000     0.769310000000    -0.0242747  
C571     C      0.525210000000     0.883340000000     0.744400000000    -0.0114127  
C572     C      0.980830000000     0.883980000000     0.783820000000     0.0359729  
C573     C      0.978180000000     0.631710000000     0.765300000000    -0.0109447  
C574     C      0.524130000000     0.635020000000     0.728280000000    -0.0250027  
C575     C      0.993220000000     0.603890000000     0.781300000000    -0.00827786 
C576     C      0.536500000000     0.604240000000     0.741730000000     0.0340297  
Cu1      Cu     0.505970000000     0.493140000000     0.229880000000     0.850793   
Cu2      Cu     0.006490000000     0.994180000000     0.288040000000     0.845725   
Cu3      Cu     0.470630000000     0.241870000000     0.260490000000     0.848347   
Cu4      Cu     0.027390000000     0.245420000000     0.250160000000     0.84432    
Cu5      Cu     0.253720000000     0.476800000000     0.255660000000     0.846165   
Cu6      Cu     0.256220000000     0.033970000000     0.256540000000     0.842636   
Cu7      Cu     0.280500000000     0.000450000000     0.511400000000     0.83378    
Cu8      Cu     0.224020000000     0.502070000000     0.999440000000     0.851873   
Cu9      Cu     0.501930000000     0.273810000000     0.003730000000     0.826094   
Cu10     Cu     0.998390000000     0.216930000000     0.508330000000     0.855349   
Cu11     Cu     0.244370000000     0.250390000000     0.473440000000     0.83874    
Cu12     Cu     0.254570000000     0.250070000000     0.030610000000     0.838946   
Cu13     Cu     0.505970000000     0.493140000000     0.729880000000     0.850847   
Cu14     Cu     0.006490000000     0.994180000000     0.788040000000     0.845774   
Cu15     Cu     0.470630000000     0.241870000000     0.760490000000     0.848479   
Cu16     Cu     0.027390000000     0.245420000000     0.750160000000     0.844168   
Cu17     Cu     0.253720000000     0.476800000000     0.755660000000     0.846303   
Cu18     Cu     0.256220000000     0.033970000000     0.756540000000     0.842481   
Cu19     Cu     0.280500000000     0.000450000000     0.011400000000     0.831377   
Cu20     Cu     0.224020000000     0.502070000000     0.499440000000     0.848195   
Cu21     Cu     0.501930000000     0.273810000000     0.503730000000     0.828206   
Cu22     Cu     0.998390000000     0.216930000000     0.008330000000     0.854392   
Cu23     Cu     0.244370000000     0.250390000000     0.973440000000     0.839694   
Cu24     Cu     0.254570000000     0.250070000000     0.530610000000     0.840249   
Cu25     Cu     0.505970000000     0.993140000000     0.229880000000     0.853843   
Cu26     Cu     0.006490000000     0.494180000000     0.288040000000     0.842599   
Cu27     Cu     0.470630000000     0.741870000000     0.260490000000     0.848326   
Cu28     Cu     0.027390000000     0.745420000000     0.250160000000     0.844286   
Cu29     Cu     0.253720000000     0.976800000000     0.255660000000     0.84812    
Cu30     Cu     0.256220000000     0.533970000000     0.256540000000     0.846127   
Cu31     Cu     0.280500000000     0.500450000000     0.511400000000     0.839095   
Cu32     Cu     0.224020000000     0.002070000000     0.999440000000     0.846531   
Cu33     Cu     0.501930000000     0.773810000000     0.003730000000     0.826157   
Cu34     Cu     0.998390000000     0.716930000000     0.508330000000     0.855477   
Cu35     Cu     0.244370000000     0.750390000000     0.473440000000     0.838712   
Cu36     Cu     0.254570000000     0.750070000000     0.030610000000     0.838923   
Cu37     Cu     0.505970000000     0.993140000000     0.729880000000     0.853903   
Cu38     Cu     0.006490000000     0.494180000000     0.788040000000     0.842649   
Cu39     Cu     0.470630000000     0.741870000000     0.760490000000     0.848458   
Cu40     Cu     0.027390000000     0.745420000000     0.750160000000     0.844134   
Cu41     Cu     0.253720000000     0.976800000000     0.755660000000     0.84826    
Cu42     Cu     0.256220000000     0.533970000000     0.756540000000     0.845975   
Cu43     Cu     0.280500000000     0.500450000000     0.011400000000     0.83666    
Cu44     Cu     0.224020000000     0.002070000000     0.499440000000     0.842852   
Cu45     Cu     0.501930000000     0.773810000000     0.503730000000     0.828278   
Cu46     Cu     0.998390000000     0.716930000000     0.008330000000     0.854516   
Cu47     Cu     0.244370000000     0.750390000000     0.973440000000     0.839668   
Cu48     Cu     0.254570000000     0.750070000000     0.530610000000     0.840229   
Cu49     Cu     0.005970000000     0.493140000000     0.229880000000     0.850003   
Cu50     Cu     0.506490000000     0.994180000000     0.288040000000     0.846564   
Cu51     Cu     0.970630000000     0.241870000000     0.260490000000     0.849289   
Cu52     Cu     0.527380000000     0.245420000000     0.250160000000     0.845      
Cu53     Cu     0.753720000000     0.476800000000     0.255660000000     0.846164   
Cu54     Cu     0.756220000000     0.033970000000     0.256540000000     0.842623   
Cu55     Cu     0.780500000000     0.000450000000     0.511400000000     0.833778   
Cu56     Cu     0.724020000000     0.502070000000     0.999440000000     0.851913   
Cu57     Cu     0.001930000000     0.273810000000     0.003730000000     0.823678   
Cu58     Cu     0.498390000000     0.216930000000     0.508330000000     0.852753   
Cu59     Cu     0.744370000000     0.250390000000     0.473440000000     0.838736   
Cu60     Cu     0.754570000000     0.250070000000     0.030610000000     0.838947   
Cu61     Cu     0.005970000000     0.493140000000     0.729880000000     0.850058   
Cu62     Cu     0.506490000000     0.994180000000     0.788040000000     0.846612   
Cu63     Cu     0.970630000000     0.241870000000     0.760490000000     0.849418   
Cu64     Cu     0.527380000000     0.245420000000     0.750160000000     0.844846   
Cu65     Cu     0.753720000000     0.476800000000     0.755660000000     0.846302   
Cu66     Cu     0.756220000000     0.033970000000     0.756540000000     0.842468   
Cu67     Cu     0.780500000000     0.000450000000     0.011400000000     0.83138    
Cu68     Cu     0.724020000000     0.502070000000     0.499440000000     0.848241   
Cu69     Cu     0.001930000000     0.273810000000     0.503730000000     0.825783   
Cu70     Cu     0.498390000000     0.216930000000     0.008330000000     0.851792   
Cu71     Cu     0.744370000000     0.250390000000     0.973440000000     0.839688   
Cu72     Cu     0.754570000000     0.250070000000     0.530610000000     0.840247   
Cu73     Cu     0.005970000000     0.993140000000     0.229880000000     0.85303    
Cu74     Cu     0.506490000000     0.494180000000     0.288040000000     0.843416   
Cu75     Cu     0.970630000000     0.741870000000     0.260490000000     0.849274   
Cu76     Cu     0.527380000000     0.745420000000     0.250160000000     0.844974   
Cu77     Cu     0.753720000000     0.976800000000     0.255660000000     0.848124   
Cu78     Cu     0.756220000000     0.533970000000     0.256540000000     0.846123   
Cu79     Cu     0.780500000000     0.500450000000     0.511400000000     0.839106   
Cu80     Cu     0.724020000000     0.002070000000     0.999440000000     0.846554   
Cu81     Cu     0.001930000000     0.773810000000     0.003730000000     0.823716   
Cu82     Cu     0.498390000000     0.716930000000     0.508330000000     0.852859   
Cu83     Cu     0.744370000000     0.750390000000     0.473440000000     0.838709   
Cu84     Cu     0.754570000000     0.750070000000     0.030610000000     0.838924   
Cu85     Cu     0.005970000000     0.993140000000     0.729880000000     0.85309    
Cu86     Cu     0.506490000000     0.494180000000     0.788040000000     0.843463   
Cu87     Cu     0.970630000000     0.741870000000     0.760490000000     0.849404   
Cu88     Cu     0.527380000000     0.745420000000     0.750160000000     0.84482    
Cu89     Cu     0.753720000000     0.976800000000     0.755660000000     0.848264   
Cu90     Cu     0.756220000000     0.533970000000     0.756540000000     0.845971   
Cu91     Cu     0.780500000000     0.500450000000     0.011400000000     0.836675   
Cu92     Cu     0.724020000000     0.002070000000     0.499440000000     0.842881   
Cu93     Cu     0.001930000000     0.773810000000     0.503730000000     0.82583    
Cu94     Cu     0.498390000000     0.716930000000     0.008330000000     0.851893   
Cu95     Cu     0.744370000000     0.750390000000     0.973440000000     0.839662   
Cu96     Cu     0.754570000000     0.750070000000     0.530610000000     0.840228   
H1       H      0.363160000000     0.203160000000     0.978550000000     0.0386137  
H2       H      0.401830000000     0.206860000000     0.019840000000     0.0436171  
H3       H      0.364590000000     0.252760000000     0.442180000000     0.0316472  
H4       H      0.406110000000     0.286750000000     0.460240000000     0.0458106  
H5       H      0.343790000000     0.206260000000     0.015850000000     0.0375311  
H6       H      0.383910000000     0.240930000000     0.035630000000     0.0424368  
H7       H      0.387140000000     0.293100000000     0.497450000000     0.0483853  
H8       H      0.323560000000     0.295950000000     0.424830000000     0.0399023  
H9       H      0.135670000000     0.289640000000     0.507530000000     0.0395004  
H10      H      0.093910000000     0.288580000000     0.044800000000     0.0422458  
H11      H      0.131850000000     0.230370000000     0.478420000000     0.0349907  
H12      H      0.096440000000     0.196030000000     0.507750000000     0.0481271  
H13      H      0.154220000000     0.288510000000     0.045220000000     0.0384584  
H14      H      0.112640000000     0.259490000000     0.068100000000     0.0391519  
H15      H      0.117220000000     0.203510000000     0.043910000000     0.0472653  
H16      H      0.171620000000     0.185540000000     0.465930000000     0.0380267  
H17      H      0.246620000000     0.385470000000     0.053500000000     0.0396073  
H18      H      0.283800000000     0.345400000000     0.042440000000     0.0438263  
H19      H      0.204040000000     0.383260000000     0.505870000000     0.0320255  
H20      H      0.220730000000     0.347690000000     0.464190000000     0.0470381  
H21      H      0.282710000000     0.404360000000     0.044760000000     0.042228   
H22      H      0.297520000000     0.364820000000     0.007890000000     0.0407726  
H23      H      0.257000000000     0.368360000000     0.459370000000     0.0473239  
H24      H      0.177970000000     0.422100000000     0.465510000000     0.0362438  
H25      H      0.298780000000     0.120140000000     0.006190000000     0.0397488  
H26      H      0.273100000000     0.153510000000     0.045120000000     0.0416348  
H27      H      0.268180000000     0.119310000000     0.454020000000     0.0302162  
H28      H      0.224430000000     0.154570000000     0.456620000000     0.0471362  
H29      H      0.284250000000     0.097230000000     0.038600000000     0.0384195  
H30      H      0.238040000000     0.130510000000     0.043290000000     0.0424677  
H31      H      0.206640000000     0.132330000000     0.487470000000     0.0472882  
H32      H      0.242730000000     0.065950000000     0.426950000000     0.0374527  
H33      H      0.264030000000     0.043310000000     0.378190000000     0.0386942  
H34      H      0.306070000000     0.023670000000     0.411740000000     0.0392758  
H35      H      0.218230000000     0.502030000000     0.379490000000     0.0333528  
H36      H      0.232650000000     0.456180000000     0.410380000000     0.0460444  
H37      H      0.296920000000     0.034420000000     0.353430000000     0.0365752  
H38      H      0.311440000000     0.990380000000     0.386520000000     0.0456652  
H39      H      0.265630000000     0.449390000000     0.385120000000     0.0471363  
H40      H      0.181690000000     0.457640000000     0.358170000000     0.0278174  
H41      H      0.229330000000     0.055280000000     0.121280000000     0.0381253  
H42      H      0.272600000000     0.049950000000     0.157010000000     0.0431084  
H43      H      0.194470000000     0.005670000000     0.126010000000     0.0288964  
H44      H      0.217860000000     0.466870000000     0.160590000000     0.0477411  
H45      H      0.264160000000     0.052830000000     0.097870000000     0.0360332  
H46      H      0.288330000000     0.518090000000     0.135180000000     0.0426679  
H47      H      0.252140000000     0.464480000000     0.136140000000     0.0485855  
H48      H      0.171550000000     0.967740000000     0.081030000000     0.0408703  
H49      H      0.507460000000     0.282710000000     0.367550000000     0.0398467  
H50      H      0.543310000000     0.280920000000     0.410460000000     0.0429626  
H51      H      0.473980000000     0.224580000000     0.373140000000     0.0356036  
H52      H      0.000120000000     0.191020000000     0.411480000000     0.0485352  
H53      H      0.544960000000     0.277710000000     0.349860000000     0.0397182  
H54      H      0.064380000000     0.249130000000     0.393680000000     0.0390188  
H55      H      0.036920000000     0.195360000000     0.391390000000     0.0467382  
H56      H      0.461120000000     0.178480000000     0.334430000000     0.0381563  
H57      H      0.023400000000     0.265280000000     0.138840000000     0.0429601  
H58      H      0.995410000000     0.299110000000     0.102090000000     0.0425564  
H59      H      0.996810000000     0.207070000000     0.138710000000     0.0328516  
H60      H      0.457000000000     0.207070000000     0.098320000000     0.046898   
H61      H      0.001850000000     0.294120000000     0.160410000000     0.033634   
H62      H      0.458970000000     0.291920000000     0.122120000000     0.04148    
H63      H      0.435210000000     0.236620000000     0.118200000000     0.04464    
H64      H      0.968390000000     0.174090000000     0.183710000000     0.0373367  
H65      H      0.136850000000     0.517480000000     0.303560000000     0.0391896  
H66      H      0.104320000000     0.471830000000     0.303130000000     0.0423029  
H67      H      0.131380000000     0.044480000000     0.246910000000     0.0297846  
H68      H      0.100980000000     0.012200000000     0.210480000000     0.0480754  
H69      H      0.162170000000     0.484470000000     0.305930000000     0.0368704  
H70      H      0.127860000000     0.453910000000     0.273380000000     0.0412831  
H71      H      0.127300000000     0.980120000000     0.216160000000     0.0511046  
H72      H      0.174760000000     0.063890000000     0.205450000000     0.0407538  
H73      H      0.390320000000     0.453930000000     0.266230000000     0.0400974  
H74      H      0.350490000000     0.459140000000     0.227170000000     0.0430842  
H75      H      0.386620000000     0.006040000000     0.301680000000     0.0316311  
H76      H      0.352360000000     0.045110000000     0.277870000000     0.0476027  
H77      H      0.410290000000     0.457510000000     0.229420000000     0.0410404  
H78      H      0.370520000000     0.490340000000     0.208090000000     0.0403916  
H79      H      0.374430000000     0.044150000000     0.241720000000     0.0477047  
H80      H      0.428670000000     0.046800000000     0.322570000000     0.0381699  
H81      H      0.043890000000     0.377620000000     0.261620000000     0.0397284  
H82      H      0.032640000000     0.339070000000     0.221950000000     0.0420989  
H83      H      0.495290000000     0.377860000000     0.304640000000     0.0324242  
H84      H      0.456920000000     0.339690000000     0.288010000000     0.0459664  
H85      H      0.036200000000     0.397090000000     0.225200000000     0.0408735  
H86      H      0.997750000000     0.358860000000     0.210310000000     0.0402295  
H87      H      0.450610000000     0.359350000000     0.251090000000     0.0468561  
H88      H      0.454110000000     0.418410000000     0.326330000000     0.0395023  
H89      H      0.508900000000     0.112240000000     0.300370000000     0.0428538  
H90      H      0.464800000000     0.145030000000     0.283190000000     0.040821   
H91      H      0.054390000000     0.110450000000     0.259610000000     0.0305452  
H92      H      0.044130000000     0.150180000000     0.221830000000     0.0473124  
H93      H      0.474720000000     0.089330000000     0.292110000000     0.0390293  
H94      H      0.461570000000     0.123320000000     0.247080000000     0.0432211  
H95      H      0.011060000000     0.130040000000     0.206220000000     0.0438905  
H96      H      0.081380000000     0.067740000000     0.224280000000     0.033709   
H97      H      0.363160000000     0.203160000000     0.478550000000     0.0389638  
H98      H      0.401830000000     0.206860000000     0.519840000000     0.043278   
H99      H      0.364590000000     0.252760000000     0.942180000000     0.0316355  
H100     H      0.406110000000     0.286750000000     0.960240000000     0.0459167  
H101     H      0.343790000000     0.206260000000     0.515850000000     0.038999   
H102     H      0.383910000000     0.240930000000     0.535630000000     0.0421397  
H103     H      0.387140000000     0.293100000000     0.997450000000     0.0488182  
H104     H      0.323560000000     0.295950000000     0.924830000000     0.0398838  
H105     H      0.135670000000     0.289640000000     0.007530000000     0.0392015  
H106     H      0.093910000000     0.288580000000     0.544790000000     0.0423442  
H107     H      0.131850000000     0.230370000000     0.978420000000     0.0364353  
H108     H      0.096440000000     0.196030000000     0.007750000000     0.0475529  
H109     H      0.154220000000     0.288510000000     0.545220000000     0.0384916  
H110     H      0.112640000000     0.259490000000     0.568100000000     0.0391677  
H111     H      0.117220000000     0.203510000000     0.543910000000     0.0475747  
H112     H      0.171620000000     0.185540000000     0.965930000000     0.0377712  
H113     H      0.246620000000     0.385470000000     0.553500000000     0.0396538  
H114     H      0.283800000000     0.345400000000     0.542430000000     0.0438885  
H115     H      0.204040000000     0.383260000000     0.005870000000     0.0307187  
H116     H      0.220730000000     0.347690000000     0.964190000000     0.047259   
H117     H      0.282710000000     0.404360000000     0.544760000000     0.0422958  
H118     H      0.297520000000     0.364820000000     0.507890000000     0.0411297  
H119     H      0.257000000000     0.368360000000     0.959370000000     0.0475375  
H120     H      0.177970000000     0.422100000000     0.965510000000     0.0365926  
H121     H      0.298780000000     0.120140000000     0.506190000000     0.0399095  
H122     H      0.273100000000     0.153510000000     0.545110000000     0.0416901  
H123     H      0.268180000000     0.119310000000     0.954020000000     0.0304829  
H124     H      0.224430000000     0.154570000000     0.956620000000     0.047024   
H125     H      0.284250000000     0.097230000000     0.538600000000     0.0383734  
H126     H      0.238040000000     0.130510000000     0.543300000000     0.0427483  
H127     H      0.206640000000     0.132330000000     0.987470000000     0.0473803  
H128     H      0.242730000000     0.065950000000     0.926950000000     0.0374534  
H129     H      0.264030000000     0.043310000000     0.878190000000     0.0387142  
H130     H      0.306070000000     0.023670000000     0.911740000000     0.039417   
H131     H      0.218230000000     0.502030000000     0.879490000000     0.0333754  
H132     H      0.232650000000     0.456180000000     0.910390000000     0.0461104  
H133     H      0.296920000000     0.034420000000     0.853430000000     0.0366031  
H134     H      0.311440000000     0.990380000000     0.886520000000     0.0457535  
H135     H      0.265630000000     0.449390000000     0.885120000000     0.0471828  
H136     H      0.181690000000     0.457640000000     0.858180000000     0.0278562  
H137     H      0.229330000000     0.055280000000     0.621280000000     0.0381821  
H138     H      0.272600000000     0.049950000000     0.657010000000     0.0431204  
H139     H      0.194470000000     0.005670000000     0.626010000000     0.0289277  
H140     H      0.217860000000     0.466870000000     0.660600000000     0.0477423  
H141     H      0.264160000000     0.052830000000     0.597870000000     0.0360987  
H142     H      0.288330000000     0.518090000000     0.635180000000     0.0426861  
H143     H      0.252140000000     0.464480000000     0.636140000000     0.0485884  
H144     H      0.171550000000     0.967740000000     0.581030000000     0.0410263  
H145     H      0.507460000000     0.282710000000     0.867550000000     0.03989    
H146     H      0.543310000000     0.280920000000     0.910460000000     0.0431205  
H147     H      0.473980000000     0.224580000000     0.873140000000     0.0356378  
H148     H      0.000120000000     0.191020000000     0.911480000000     0.0486884  
H149     H      0.544960000000     0.277710000000     0.849860000000     0.0397476  
H150     H      0.064380000000     0.249130000000     0.893680000000     0.0391161  
H151     H      0.036920000000     0.195360000000     0.891390000000     0.0468302  
H152     H      0.461120000000     0.178480000000     0.834430000000     0.0381784  
H153     H      0.023400000000     0.265280000000     0.638840000000     0.0429689  
H154     H      0.995410000000     0.299110000000     0.602090000000     0.0426122  
H155     H      0.996810000000     0.207070000000     0.638710000000     0.0328701  
H156     H      0.457000000000     0.207070000000     0.598320000000     0.0469482  
H157     H      0.001850000000     0.294120000000     0.660410000000     0.0336517  
H158     H      0.458970000000     0.291920000000     0.622120000000     0.0415373  
H159     H      0.435210000000     0.236620000000     0.618200000000     0.0446813  
H160     H      0.968390000000     0.174090000000     0.683710000000     0.0373436  
H161     H      0.136850000000     0.517480000000     0.803560000000     0.0392257  
H162     H      0.104320000000     0.471830000000     0.803140000000     0.0423154  
H163     H      0.131380000000     0.044480000000     0.746910000000     0.0297908  
H164     H      0.100980000000     0.012200000000     0.710480000000     0.0480974  
H165     H      0.162170000000     0.484470000000     0.805920000000     0.0369055  
H166     H      0.127860000000     0.453910000000     0.773380000000     0.0412787  
H167     H      0.127300000000     0.980120000000     0.716160000000     0.0511235  
H168     H      0.174760000000     0.063890000000     0.705450000000     0.0407641  
H169     H      0.390320000000     0.453930000000     0.766230000000     0.0401098  
H170     H      0.350490000000     0.459140000000     0.727170000000     0.043093   
H171     H      0.386620000000     0.006040000000     0.801680000000     0.0316629  
H172     H      0.352360000000     0.045110000000     0.777870000000     0.0476156  
H173     H      0.410290000000     0.457510000000     0.729420000000     0.0410544  
H174     H      0.370520000000     0.490340000000     0.708090000000     0.0404097  
H175     H      0.374430000000     0.044150000000     0.741720000000     0.0477117  
H176     H      0.428670000000     0.046800000000     0.822560000000     0.0382478  
H177     H      0.043890000000     0.377620000000     0.761620000000     0.0397411  
H178     H      0.032640000000     0.339070000000     0.721950000000     0.0421155  
H179     H      0.495290000000     0.377860000000     0.804640000000     0.0324597  
H180     H      0.456920000000     0.339690000000     0.788010000000     0.0459824  
H181     H      0.036200000000     0.397090000000     0.725200000000     0.0408898  
H182     H      0.997750000000     0.358860000000     0.710310000000     0.0402475  
H183     H      0.450610000000     0.359350000000     0.751090000000     0.0468646  
H184     H      0.454110000000     0.418410000000     0.826330000000     0.0395678  
H185     H      0.508900000000     0.112240000000     0.800370000000     0.0428851  
H186     H      0.464800000000     0.145030000000     0.783190000000     0.0408307  
H187     H      0.054390000000     0.110450000000     0.759610000000     0.0305627  
H188     H      0.044130000000     0.150180000000     0.721830000000     0.0472894  
H189     H      0.474720000000     0.089330000000     0.792110000000     0.0390546  
H190     H      0.461570000000     0.123320000000     0.747080000000     0.0432257  
H191     H      0.011060000000     0.130040000000     0.706220000000     0.0438717  
H192     H      0.081380000000     0.067740000000     0.724280000000     0.0337094  
H193     H      0.363160000000     0.703160000000     0.978550000000     0.0386592  
H194     H      0.401830000000     0.706860000000     0.019840000000     0.0436832  
H195     H      0.364590000000     0.752760000000     0.442180000000     0.0316573  
H196     H      0.406110000000     0.786750000000     0.460240000000     0.0458729  
H197     H      0.343790000000     0.706260000000     0.015850000000     0.0375571  
H198     H      0.383910000000     0.740930000000     0.035630000000     0.0424631  
H199     H      0.387140000000     0.793100000000     0.497450000000     0.0484583  
H200     H      0.323560000000     0.795950000000     0.424830000000     0.0399028  
H201     H      0.135670000000     0.789640000000     0.507530000000     0.0395538  
H202     H      0.093910000000     0.788580000000     0.044800000000     0.0423001  
H203     H      0.131850000000     0.730370000000     0.478420000000     0.0349934  
H204     H      0.096440000000     0.696030000000     0.507750000000     0.048205   
H205     H      0.154220000000     0.788510000000     0.045220000000     0.038505   
H206     H      0.112640000000     0.759490000000     0.068100000000     0.0391653  
H207     H      0.117220000000     0.703510000000     0.043910000000     0.0473126  
H208     H      0.171620000000     0.685540000000     0.465930000000     0.0380445  
H209     H      0.246620000000     0.885470000000     0.053500000000     0.0397423  
H210     H      0.283800000000     0.845400000000     0.042440000000     0.0438832  
H211     H      0.204040000000     0.883260000000     0.505870000000     0.0321327  
H212     H      0.220730000000     0.847690000000     0.464190000000     0.0470516  
H213     H      0.282710000000     0.904360000000     0.044760000000     0.0425376  
H214     H      0.297520000000     0.864820000000     0.007890000000     0.0408851  
H215     H      0.257000000000     0.868360000000     0.459370000000     0.0473657  
H216     H      0.177970000000     0.922100000000     0.465510000000     0.0365978  
H217     H      0.298780000000     0.620140000000     0.006190000000     0.0398502  
H218     H      0.273100000000     0.653510000000     0.045120000000     0.0416596  
H219     H      0.268180000000     0.619310000000     0.454020000000     0.0302763  
H220     H      0.224430000000     0.654570000000     0.456620000000     0.0471498  
H221     H      0.284250000000     0.597230000000     0.038600000000     0.0384845  
H222     H      0.238040000000     0.630510000000     0.043290000000     0.0424936  
H223     H      0.206640000000     0.632330000000     0.487470000000     0.0473519  
H224     H      0.242730000000     0.565950000000     0.426950000000     0.0377309  
H225     H      0.264030000000     0.543310000000     0.378190000000     0.0392499  
H226     H      0.306070000000     0.523670000000     0.411740000000     0.038689   
H227     H      0.218230000000     0.002030000000     0.379490000000     0.0298717  
H228     H      0.232650000000     0.956180000000     0.410380000000     0.0466328  
H229     H      0.296920000000     0.534420000000     0.353430000000     0.0372437  
H230     H      0.311440000000     0.490380000000     0.386520000000     0.0420098  
H231     H      0.265630000000     0.949390000000     0.385120000000     0.04769    
H232     H      0.181690000000     0.957640000000     0.358170000000     0.0284203  
H233     H      0.229330000000     0.555280000000     0.121280000000     0.038258   
H234     H      0.272600000000     0.549950000000     0.157010000000     0.0431327  
H235     H      0.194470000000     0.505670000000     0.126010000000     0.0321224  
H236     H      0.217860000000     0.966870000000     0.160590000000     0.0481549  
H237     H      0.264160000000     0.552830000000     0.097870000000     0.0360947  
H238     H      0.288330000000     0.018090000000     0.135180000000     0.0419856  
H239     H      0.252140000000     0.964480000000     0.136140000000     0.0490576  
H240     H      0.171550000000     0.467740000000     0.081030000000     0.0399149  
H241     H      0.507460000000     0.782710000000     0.367550000000     0.0398854  
H242     H      0.543310000000     0.780920000000     0.410460000000     0.0430064  
H243     H      0.473980000000     0.724580000000     0.373140000000     0.0356179  
H244     H      0.000120000000     0.691020000000     0.411480000000     0.0486204  
H245     H      0.544960000000     0.777700000000     0.349860000000     0.0397498  
H246     H      0.064380000000     0.749130000000     0.393680000000     0.0390321  
H247     H      0.036920000000     0.695360000000     0.391390000000     0.0468067  
H248     H      0.461120000000     0.678480000000     0.334430000000     0.0381711  
H249     H      0.023400000000     0.765280000000     0.138840000000     0.0429643  
H250     H      0.995410000000     0.799110000000     0.102090000000     0.0426408  
H251     H      0.996810000000     0.707070000000     0.138710000000     0.0328972  
H252     H      0.457000000000     0.707070000000     0.098320000000     0.046961   
H253     H      0.001850000000     0.794120000000     0.160410000000     0.0336554  
H254     H      0.458970000000     0.791920000000     0.122120000000     0.041539   
H255     H      0.435210000000     0.736620000000     0.118200000000     0.0446598  
H256     H      0.968390000000     0.674090000000     0.183710000000     0.0373858  
H257     H      0.136850000000     0.017480000000     0.303560000000     0.035709   
H258     H      0.104320000000     0.971830000000     0.303130000000     0.0431573  
H259     H      0.131380000000     0.544480000000     0.246910000000     0.0303392  
H260     H      0.100980000000     0.512190000000     0.210480000000     0.0476769  
H261     H      0.162170000000     0.984470000000     0.305930000000     0.036227   
H262     H      0.127860000000     0.953920000000     0.273380000000     0.0418371  
H263     H      0.127300000000     0.480120000000     0.216160000000     0.0476871  
H264     H      0.174760000000     0.563900000000     0.205450000000     0.0405146  
H265     H      0.390320000000     0.953930000000     0.266230000000     0.0405999  
H266     H      0.350490000000     0.959140000000     0.227170000000     0.042991   
H267     H      0.386620000000     0.506040000000     0.301680000000     0.0322151  
H268     H      0.352360000000     0.545110000000     0.277870000000     0.0476944  
H269     H      0.410290000000     0.957510000000     0.229420000000     0.0412596  
H270     H      0.370520000000     0.990340000000     0.208090000000     0.0409766  
H271     H      0.374430000000     0.544150000000     0.241720000000     0.0482944  
H272     H      0.428670000000     0.546800000000     0.322570000000     0.0387452  
H273     H      0.043890000000     0.877620000000     0.261620000000     0.039757   
H274     H      0.032640000000     0.839070000000     0.221950000000     0.0421306  
H275     H      0.495290000000     0.877860000000     0.304640000000     0.0324948  
H276     H      0.456920000000     0.839690000000     0.288010000000     0.0459878  
H277     H      0.036200000000     0.897090000000     0.225200000000     0.0409717  
H278     H      0.997750000000     0.858860000000     0.210310000000     0.0403116  
H279     H      0.450610000000     0.859350000000     0.251090000000     0.04689    
H280     H      0.454110000000     0.918410000000     0.326330000000     0.0397568  
H281     H      0.508900000000     0.612240000000     0.300370000000     0.0429966  
H282     H      0.464800000000     0.645030000000     0.283190000000     0.0408507  
H283     H      0.054390000000     0.610450000000     0.259610000000     0.0306544  
H284     H      0.044130000000     0.650180000000     0.221830000000     0.047323   
H285     H      0.474720000000     0.589330000000     0.292110000000     0.0392599  
H286     H      0.461570000000     0.623320000000     0.247080000000     0.0433391  
H287     H      0.011060000000     0.630040000000     0.206220000000     0.043991   
H288     H      0.081380000000     0.567740000000     0.224280000000     0.0339253  
H289     H      0.363160000000     0.703160000000     0.478550000000     0.0390103  
H290     H      0.401830000000     0.706860000000     0.519840000000     0.0433437  
H291     H      0.364590000000     0.752760000000     0.942180000000     0.0316456  
H292     H      0.406110000000     0.786750000000     0.960240000000     0.0459788  
H293     H      0.343790000000     0.706260000000     0.515850000000     0.0390294  
H294     H      0.383910000000     0.740930000000     0.535630000000     0.0421652  
H295     H      0.387140000000     0.793100000000     0.997450000000     0.048891   
H296     H      0.323560000000     0.795950000000     0.924830000000     0.0398843  
H297     H      0.135670000000     0.789640000000     0.007530000000     0.0392533  
H298     H      0.093910000000     0.788580000000     0.544790000000     0.0423992  
H299     H      0.131850000000     0.730370000000     0.978420000000     0.036442   
H300     H      0.096440000000     0.696030000000     0.007750000000     0.047628   
H301     H      0.154220000000     0.788510000000     0.545220000000     0.0385386  
H302     H      0.112640000000     0.759490000000     0.568100000000     0.0391813  
H303     H      0.117220000000     0.703510000000     0.543910000000     0.0476231  
H304     H      0.171620000000     0.685540000000     0.965930000000     0.0377885  
H305     H      0.246620000000     0.885470000000     0.553500000000     0.0397894  
H306     H      0.283800000000     0.845400000000     0.542430000000     0.0439459  
H307     H      0.204040000000     0.883260000000     0.005870000000     0.0308223  
H308     H      0.220730000000     0.847690000000     0.964190000000     0.0472727  
H309     H      0.282710000000     0.904360000000     0.544760000000     0.0426068  
H310     H      0.297520000000     0.864820000000     0.507890000000     0.0412442  
H311     H      0.257000000000     0.868360000000     0.959370000000     0.0475794  
H312     H      0.177970000000     0.922100000000     0.965510000000     0.036946   
H313     H      0.298780000000     0.620140000000     0.506190000000     0.0400125  
H314     H      0.273100000000     0.653510000000     0.545110000000     0.0417151  
H315     H      0.268180000000     0.619310000000     0.954020000000     0.0305438  
H316     H      0.224430000000     0.654570000000     0.956620000000     0.0470372  
H317     H      0.284250000000     0.597230000000     0.538600000000     0.0384385  
H318     H      0.238040000000     0.630510000000     0.543300000000     0.0427755  
H319     H      0.206640000000     0.632330000000     0.987470000000     0.0474437  
H320     H      0.242730000000     0.565950000000     0.926950000000     0.0377313  
H321     H      0.264030000000     0.543310000000     0.878190000000     0.0392693  
H322     H      0.306070000000     0.523670000000     0.911740000000     0.0388308  
H323     H      0.218230000000     0.002030000000     0.879490000000     0.0298964  
H324     H      0.232650000000     0.956180000000     0.910390000000     0.0466981  
H325     H      0.296920000000     0.534420000000     0.853430000000     0.0372712  
H326     H      0.311440000000     0.490380000000     0.886520000000     0.0421014  
H327     H      0.265630000000     0.949390000000     0.885120000000     0.047736   
H328     H      0.181690000000     0.957640000000     0.858180000000     0.0284586  
H329     H      0.229330000000     0.555280000000     0.621280000000     0.0383155  
H330     H      0.272600000000     0.549950000000     0.657010000000     0.0431447  
H331     H      0.194470000000     0.505670000000     0.626010000000     0.0321634  
H332     H      0.217860000000     0.966870000000     0.660600000000     0.0481572  
H333     H      0.264160000000     0.552830000000     0.597870000000     0.0361607  
H334     H      0.288330000000     0.018090000000     0.635180000000     0.0420018  
H335     H      0.252140000000     0.964480000000     0.636140000000     0.049062   
H336     H      0.171550000000     0.467740000000     0.581030000000     0.0400676  
H337     H      0.507460000000     0.782710000000     0.867550000000     0.0399287  
H338     H      0.543310000000     0.780920000000     0.910460000000     0.0431644  
H339     H      0.473980000000     0.724580000000     0.873140000000     0.0356522  
H340     H      0.000120000000     0.691020000000     0.911480000000     0.0487737  
H341     H      0.544960000000     0.777700000000     0.849860000000     0.0397792  
H342     H      0.064380000000     0.749130000000     0.893680000000     0.0391295  
H343     H      0.036920000000     0.695360000000     0.891390000000     0.0468988  
H344     H      0.461120000000     0.678480000000     0.834430000000     0.0381932  
H345     H      0.023400000000     0.765280000000     0.638840000000     0.0429732  
H346     H      0.995410000000     0.799110000000     0.602090000000     0.0426971  
H347     H      0.996810000000     0.707070000000     0.638710000000     0.0329159  
H348     H      0.457000000000     0.707070000000     0.598320000000     0.0470116  
H349     H      0.001850000000     0.794120000000     0.660410000000     0.0336733  
H350     H      0.458970000000     0.791920000000     0.622120000000     0.0415968  
H351     H      0.435210000000     0.736620000000     0.618200000000     0.0447014  
H352     H      0.968390000000     0.674090000000     0.683710000000     0.0373929  
H353     H      0.136850000000     0.017480000000     0.803560000000     0.0357432  
H354     H      0.104320000000     0.971830000000     0.803140000000     0.0431694  
H355     H      0.131380000000     0.544480000000     0.746910000000     0.030346   
H356     H      0.100980000000     0.512190000000     0.710480000000     0.0476988  
H357     H      0.162170000000     0.984470000000     0.805920000000     0.0362603  
H358     H      0.127860000000     0.953920000000     0.773380000000     0.0418331  
H359     H      0.127300000000     0.480120000000     0.716160000000     0.0477009  
H360     H      0.174760000000     0.563900000000     0.705450000000     0.0405245  
H361     H      0.390320000000     0.953930000000     0.766230000000     0.0406125  
H362     H      0.350490000000     0.959140000000     0.727170000000     0.0430001  
H363     H      0.386620000000     0.506040000000     0.801680000000     0.0322469  
H364     H      0.352360000000     0.545110000000     0.777870000000     0.0477072  
H365     H      0.410290000000     0.957510000000     0.729420000000     0.0412742  
H366     H      0.370520000000     0.990340000000     0.708090000000     0.0409962  
H367     H      0.374430000000     0.544150000000     0.741720000000     0.0483024  
H368     H      0.428670000000     0.546800000000     0.822560000000     0.038823   
H369     H      0.043890000000     0.877620000000     0.761620000000     0.0397697  
H370     H      0.032640000000     0.839070000000     0.721950000000     0.0421473  
H371     H      0.495290000000     0.877860000000     0.804640000000     0.0325302  
H372     H      0.456920000000     0.839690000000     0.788010000000     0.0460038  
H373     H      0.036200000000     0.897090000000     0.725200000000     0.0409883  
H374     H      0.997750000000     0.858860000000     0.710310000000     0.0403299  
H375     H      0.450610000000     0.859350000000     0.751090000000     0.0468987  
H376     H      0.454110000000     0.918410000000     0.826330000000     0.0398219  
H377     H      0.508900000000     0.612240000000     0.800370000000     0.0430278  
H378     H      0.464800000000     0.645030000000     0.783190000000     0.0408604  
H379     H      0.054390000000     0.610450000000     0.759610000000     0.0306719  
H380     H      0.044130000000     0.650180000000     0.721830000000     0.0472999  
H381     H      0.474720000000     0.589330000000     0.792110000000     0.0392853  
H382     H      0.461570000000     0.623320000000     0.747080000000     0.043344   
H383     H      0.011060000000     0.630040000000     0.706220000000     0.0439726  
H384     H      0.081380000000     0.567740000000     0.724280000000     0.0339259  
H385     H      0.863160000000     0.203160000000     0.978550000000     0.038648   
H386     H      0.901830000000     0.206860000000     0.019840000000     0.0436557  
H387     H      0.864590000000     0.252760000000     0.442180000000     0.0316798  
H388     H      0.906110000000     0.286750000000     0.460240000000     0.045921   
H389     H      0.843790000000     0.206260000000     0.015850000000     0.0375479  
H390     H      0.883910000000     0.240930000000     0.035630000000     0.0424492  
H391     H      0.887140000000     0.293100000000     0.497450000000     0.0484389  
H392     H      0.823560000000     0.295950000000     0.424830000000     0.0399091  
H393     H      0.635670000000     0.289640000000     0.507530000000     0.039515   
H394     H      0.593910000000     0.288580000000     0.044800000000     0.0423159  
H395     H      0.631850000000     0.230370000000     0.478420000000     0.0349996  
H396     H      0.596440000000     0.196030000000     0.507750000000     0.0481901  
H397     H      0.654220000000     0.288510000000     0.045220000000     0.0384729  
H398     H      0.612640000000     0.259490000000     0.068100000000     0.039207   
H399     H      0.617220000000     0.203510000000     0.043910000000     0.0473206  
H400     H      0.671620000000     0.185540000000     0.465930000000     0.0380327  
H401     H      0.746620000000     0.385470000000     0.053500000000     0.0396167  
H402     H      0.783800000000     0.345400000000     0.042440000000     0.0438383  
H403     H      0.704040000000     0.383260000000     0.505870000000     0.03204    
H404     H      0.720730000000     0.347690000000     0.464190000000     0.0470433  
H405     H      0.782710000000     0.404360000000     0.044760000000     0.042253   
H406     H      0.797520000000     0.364820000000     0.007890000000     0.0407968  
H407     H      0.757000000000     0.368360000000     0.459370000000     0.0473313  
H408     H      0.677970000000     0.422100000000     0.465510000000     0.0362709  
H409     H      0.798790000000     0.120140000000     0.006190000000     0.0397497  
H410     H      0.773100000000     0.153510000000     0.045120000000     0.0416446  
H411     H      0.768180000000     0.119310000000     0.454020000000     0.0302237  
H412     H      0.724430000000     0.154570000000     0.456620000000     0.0471419  
H413     H      0.784250000000     0.097230000000     0.038600000000     0.0384249  
H414     H      0.738040000000     0.130510000000     0.043290000000     0.0424774  
H415     H      0.706640000000     0.132330000000     0.487470000000     0.0473016  
H416     H      0.742730000000     0.065950000000     0.426950000000     0.0374604  
H417     H      0.764030000000     0.043310000000     0.378190000000     0.0386962  
H418     H      0.806070000000     0.023670000000     0.411740000000     0.0393064  
H419     H      0.718230000000     0.502030000000     0.379490000000     0.0333593  
H420     H      0.732650000000     0.456180000000     0.410380000000     0.0460518  
H421     H      0.796920000000     0.034420000000     0.353430000000     0.0365845  
H422     H      0.811440000000     0.990380000000     0.386520000000     0.0457023  
H423     H      0.765630000000     0.449390000000     0.385120000000     0.0471483  
H424     H      0.681690000000     0.457640000000     0.358170000000     0.0278355  
H425     H      0.729340000000     0.055280000000     0.121280000000     0.0381369  
H426     H      0.772600000000     0.049950000000     0.157010000000     0.0431169  
H427     H      0.694470000000     0.005670000000     0.126010000000     0.0288992  
H428     H      0.717860000000     0.466870000000     0.160590000000     0.0477468  
H429     H      0.764160000000     0.052830000000     0.097870000000     0.0360439  
H430     H      0.788330000000     0.518090000000     0.135180000000     0.0426881  
H431     H      0.752140000000     0.464480000000     0.136140000000     0.0485938  
H432     H      0.671550000000     0.967740000000     0.081030000000     0.0409055  
H433     H      0.007460000000     0.282710000000     0.367550000000     0.0395931  
H434     H      0.043310000000     0.280920000000     0.410460000000     0.0429129  
H435     H      0.973980000000     0.224580000000     0.373140000000     0.0355696  
H436     H      0.500120000000     0.191020000000     0.411480000000     0.0486398  
H437     H      0.044960000000     0.277710000000     0.349860000000     0.0396521  
H438     H      0.564370000000     0.249130000000     0.393680000000     0.0390363  
H439     H      0.536930000000     0.195360000000     0.391390000000     0.0466755  
H440     H      0.961120000000     0.178480000000     0.334430000000     0.0381332  
H441     H      0.523400000000     0.265280000000     0.138840000000     0.044082   
H442     H      0.495410000000     0.299110000000     0.102090000000     0.0420875  
H443     H      0.496810000000     0.207070000000     0.138710000000     0.0326014  
H444     H      0.957000000000     0.207070000000     0.098320000000     0.0469707  
H445     H      0.501850000000     0.294120000000     0.160410000000     0.0348458  
H446     H      0.958970000000     0.291920000000     0.122120000000     0.0417202  
H447     H      0.935210000000     0.236620000000     0.118200000000     0.0446485  
H448     H      0.468400000000     0.174090000000     0.183710000000     0.0371086  
H449     H      0.636850000000     0.517480000000     0.303560000000     0.0392082  
H450     H      0.604320000000     0.471830000000     0.303130000000     0.0423451  
H451     H      0.631380000000     0.044480000000     0.246910000000     0.0297875  
H452     H      0.600990000000     0.012200000000     0.210480000000     0.0481162  
H453     H      0.662170000000     0.484470000000     0.305930000000     0.0368777  
H454     H      0.627860000000     0.453910000000     0.273380000000     0.0412999  
H455     H      0.627290000000     0.980120000000     0.216160000000     0.0511524  
H456     H      0.674770000000     0.063890000000     0.205450000000     0.0407595  
H457     H      0.890320000000     0.453930000000     0.266230000000     0.0401323  
H458     H      0.850500000000     0.459140000000     0.227170000000     0.0431039  
H459     H      0.886620000000     0.006040000000     0.301680000000     0.0316633  
H460     H      0.852360000000     0.045110000000     0.277870000000     0.0476091  
H461     H      0.910290000000     0.457510000000     0.229420000000     0.0411354  
H462     H      0.870520000000     0.490340000000     0.208090000000     0.0404457  
H463     H      0.874430000000     0.044150000000     0.241720000000     0.0477399  
H464     H      0.928670000000     0.046800000000     0.322570000000     0.0382829  
H465     H      0.543890000000     0.377620000000     0.261620000000     0.0399277  
H466     H      0.532640000000     0.339070000000     0.221950000000     0.0418506  
H467     H      0.995290000000     0.377860000000     0.304640000000     0.0326579  
H468     H      0.956920000000     0.339690000000     0.288010000000     0.0460431  
H469     H      0.536200000000     0.397090000000     0.225200000000     0.0410679  
H470     H      0.497750000000     0.358860000000     0.210310000000     0.0391674  
H471     H      0.950610000000     0.359350000000     0.251090000000     0.0469621  
H472     H      0.954120000000     0.418410000000     0.326330000000     0.0396853  
H473     H      0.008900000000     0.112240000000     0.300370000000     0.0419282  
H474     H      0.964800000000     0.145030000000     0.283190000000     0.0409087  
H475     H      0.554390000000     0.110450000000     0.259610000000     0.0305903  
H476     H      0.544130000000     0.150180000000     0.221830000000     0.0473493  
H477     H      0.974720000000     0.089330000000     0.292110000000     0.0389046  
H478     H      0.961570000000     0.123320000000     0.247080000000     0.0433616  
H479     H      0.511060000000     0.130040000000     0.206220000000     0.0441238  
H480     H      0.581380000000     0.067740000000     0.224280000000     0.0336927  
H481     H      0.863160000000     0.203160000000     0.478550000000     0.038997   
H482     H      0.901830000000     0.206860000000     0.519840000000     0.0433179  
H483     H      0.864590000000     0.252760000000     0.942180000000     0.031668   
H484     H      0.906110000000     0.286750000000     0.960240000000     0.0460261  
H485     H      0.843790000000     0.206260000000     0.515850000000     0.0390104  
H486     H      0.883910000000     0.240930000000     0.535630000000     0.0421533  
H487     H      0.887140000000     0.293100000000     0.997450000000     0.0488698  
H488     H      0.823560000000     0.295950000000     0.924830000000     0.0398906  
H489     H      0.635670000000     0.289640000000     0.007530000000     0.0392161  
H490     H      0.593910000000     0.288580000000     0.544790000000     0.0424144  
H491     H      0.631850000000     0.230370000000     0.978420000000     0.0364442  
H492     H      0.596440000000     0.196030000000     0.007750000000     0.0476157  
H493     H      0.654220000000     0.288510000000     0.545220000000     0.0385062  
H494     H      0.612640000000     0.259490000000     0.568100000000     0.0392228  
H495     H      0.617220000000     0.203510000000     0.543910000000     0.0476298  
H496     H      0.671620000000     0.185540000000     0.965930000000     0.0377773  
H497     H      0.746620000000     0.385470000000     0.553500000000     0.0396632  
H498     H      0.783800000000     0.345400000000     0.542430000000     0.0439002  
H499     H      0.704040000000     0.383260000000     0.005870000000     0.0307346  
H500     H      0.720730000000     0.347690000000     0.964190000000     0.0472642  
H501     H      0.782710000000     0.404360000000     0.544760000000     0.0423206  
H502     H      0.797520000000     0.364820000000     0.507890000000     0.041153   
H503     H      0.757000000000     0.368360000000     0.959370000000     0.0475445  
H504     H      0.677970000000     0.422100000000     0.965510000000     0.0366194  
H505     H      0.798790000000     0.120140000000     0.506190000000     0.0399101  
H506     H      0.773100000000     0.153510000000     0.545110000000     0.0416996  
H507     H      0.768180000000     0.119310000000     0.954020000000     0.0304897  
H508     H      0.724430000000     0.154570000000     0.956620000000     0.0470299  
H509     H      0.784250000000     0.097230000000     0.538600000000     0.0383788  
H510     H      0.738040000000     0.130510000000     0.543300000000     0.0427577  
H511     H      0.706640000000     0.132330000000     0.987470000000     0.0473936  
H512     H      0.742730000000     0.065950000000     0.926950000000     0.037461   
H513     H      0.764030000000     0.043310000000     0.878190000000     0.0387161  
H514     H      0.806070000000     0.023670000000     0.911740000000     0.0394471  
H515     H      0.718230000000     0.502030000000     0.879490000000     0.0333819  
H516     H      0.732650000000     0.456180000000     0.910390000000     0.0461177  
H517     H      0.796920000000     0.034420000000     0.853430000000     0.0366122  
H518     H      0.811440000000     0.990380000000     0.886520000000     0.0457901  
H519     H      0.765630000000     0.449390000000     0.885120000000     0.0471945  
H520     H      0.681690000000     0.457640000000     0.858180000000     0.0278744  
H521     H      0.729340000000     0.055280000000     0.621280000000     0.0381936  
H522     H      0.772600000000     0.049950000000     0.657010000000     0.0431288  
H523     H      0.694470000000     0.005670000000     0.626010000000     0.0289305  
H524     H      0.717860000000     0.466870000000     0.660600000000     0.0477481  
H525     H      0.764160000000     0.052830000000     0.597870000000     0.0361093  
H526     H      0.788330000000     0.518090000000     0.635180000000     0.0427062  
H527     H      0.752140000000     0.464480000000     0.636140000000     0.0485967  
H528     H      0.671550000000     0.967740000000     0.581030000000     0.0410616  
H529     H      0.007460000000     0.282710000000     0.867550000000     0.0396369  
H530     H      0.043310000000     0.280920000000     0.910460000000     0.0430707  
H531     H      0.973980000000     0.224580000000     0.873140000000     0.0356039  
H532     H      0.500120000000     0.191020000000     0.911480000000     0.0487935  
H533     H      0.044960000000     0.277710000000     0.849860000000     0.0396816  
H534     H      0.564370000000     0.249130000000     0.893680000000     0.0391338  
H535     H      0.536930000000     0.195360000000     0.891390000000     0.0467681  
H536     H      0.961120000000     0.178480000000     0.834430000000     0.0381553  
H537     H      0.523400000000     0.265280000000     0.638840000000     0.0440889  
H538     H      0.495410000000     0.299110000000     0.602090000000     0.0421445  
H539     H      0.496810000000     0.207070000000     0.638710000000     0.0326207  
H540     H      0.957000000000     0.207070000000     0.598320000000     0.0470205  
H541     H      0.501850000000     0.294120000000     0.660410000000     0.0348615  
H542     H      0.958970000000     0.291920000000     0.622120000000     0.0417769  
H543     H      0.935210000000     0.236620000000     0.618200000000     0.0446896  
H544     H      0.468400000000     0.174090000000     0.683710000000     0.0371161  
H545     H      0.636850000000     0.517480000000     0.803560000000     0.0392443  
H546     H      0.604320000000     0.471830000000     0.803140000000     0.0423576  
H547     H      0.631380000000     0.044480000000     0.746910000000     0.0297937  
H548     H      0.600990000000     0.012200000000     0.710480000000     0.0481383  
H549     H      0.662170000000     0.484470000000     0.805920000000     0.0369129  
H550     H      0.627860000000     0.453910000000     0.773380000000     0.0412956  
H551     H      0.627290000000     0.980120000000     0.716160000000     0.0511713  
H552     H      0.674770000000     0.063890000000     0.705450000000     0.0407697  
H553     H      0.890320000000     0.453930000000     0.766230000000     0.0401445  
H554     H      0.850500000000     0.459140000000     0.727170000000     0.0431126  
H555     H      0.886620000000     0.006040000000     0.801680000000     0.0316948  
H556     H      0.852360000000     0.045110000000     0.777870000000     0.0476219  
H557     H      0.910290000000     0.457510000000     0.729420000000     0.0411491  
H558     H      0.870520000000     0.490340000000     0.708090000000     0.0404637  
H559     H      0.874430000000     0.044150000000     0.741720000000     0.0477468  
H560     H      0.928670000000     0.046800000000     0.822560000000     0.0383599  
H561     H      0.543890000000     0.377620000000     0.761620000000     0.0399399  
H562     H      0.532640000000     0.339070000000     0.721950000000     0.0418679  
H563     H      0.995290000000     0.377860000000     0.804640000000     0.0326922  
H564     H      0.956920000000     0.339690000000     0.788010000000     0.0460587  
H565     H      0.536200000000     0.397090000000     0.725200000000     0.0410839  
H566     H      0.497750000000     0.358860000000     0.710310000000     0.0391881  
H567     H      0.950610000000     0.359350000000     0.751090000000     0.0469703  
H568     H      0.954120000000     0.418410000000     0.826330000000     0.0397497  
H569     H      0.008900000000     0.112240000000     0.800370000000     0.0419622  
H570     H      0.964800000000     0.145030000000     0.783190000000     0.040918   
H571     H      0.554390000000     0.110450000000     0.759610000000     0.0306076  
H572     H      0.544130000000     0.150180000000     0.721830000000     0.0473262  
H573     H      0.974720000000     0.089330000000     0.792110000000     0.0389302  
H574     H      0.961570000000     0.123320000000     0.747080000000     0.0433658  
H575     H      0.511060000000     0.130040000000     0.706220000000     0.0441048  
H576     H      0.581380000000     0.067740000000     0.724280000000     0.0336931  
H577     H      0.863160000000     0.703160000000     0.978550000000     0.0386938  
H578     H      0.901830000000     0.706860000000     0.019840000000     0.043722   
H579     H      0.864590000000     0.752760000000     0.442180000000     0.0316902  
H580     H      0.906110000000     0.786750000000     0.460240000000     0.0459841  
H581     H      0.843790000000     0.706260000000     0.015850000000     0.037574   
H582     H      0.883910000000     0.740930000000     0.035630000000     0.0424756  
H583     H      0.887140000000     0.793100000000     0.497450000000     0.0485122  
H584     H      0.823560000000     0.795950000000     0.424830000000     0.0399096  
H585     H      0.635670000000     0.789640000000     0.507530000000     0.0395687  
H586     H      0.593910000000     0.788580000000     0.044800000000     0.0423711  
H587     H      0.631850000000     0.730370000000     0.478420000000     0.0350023  
H588     H      0.596440000000     0.696030000000     0.507750000000     0.048269   
H589     H      0.654220000000     0.788510000000     0.045220000000     0.0385198  
H590     H      0.612640000000     0.759490000000     0.068100000000     0.039221   
H591     H      0.617220000000     0.703510000000     0.043910000000     0.0473686  
H592     H      0.671620000000     0.685540000000     0.465930000000     0.0380506  
H593     H      0.746620000000     0.885470000000     0.053500000000     0.0397521  
H594     H      0.783800000000     0.845400000000     0.042440000000     0.0438954  
H595     H      0.704040000000     0.883260000000     0.505870000000     0.0321476  
H596     H      0.720730000000     0.847690000000     0.464190000000     0.0470568  
H597     H      0.782710000000     0.904360000000     0.044760000000     0.0425632  
H598     H      0.797520000000     0.864820000000     0.007890000000     0.0409095  
H599     H      0.757000000000     0.868360000000     0.459370000000     0.0473732  
H600     H      0.677970000000     0.922100000000     0.465510000000     0.0366261  
H601     H      0.798790000000     0.620140000000     0.006190000000     0.0398513  
H602     H      0.773100000000     0.653510000000     0.045120000000     0.0416694  
H603     H      0.768180000000     0.619310000000     0.454020000000     0.030284   
H604     H      0.724430000000     0.654570000000     0.456620000000     0.0471556  
H605     H      0.784250000000     0.597230000000     0.038600000000     0.0384901  
H606     H      0.738040000000     0.630510000000     0.043290000000     0.0425036  
H607     H      0.706640000000     0.632330000000     0.487470000000     0.0473657  
H608     H      0.742730000000     0.565950000000     0.426950000000     0.0377393  
H609     H      0.764030000000     0.543310000000     0.378190000000     0.0392533  
H610     H      0.806070000000     0.523670000000     0.411740000000     0.0387182  
H611     H      0.718230000000     0.002030000000     0.379490000000     0.0298679  
H612     H      0.732650000000     0.956180000000     0.410380000000     0.0466419  
H613     H      0.796920000000     0.534420000000     0.353430000000     0.0372545  
H614     H      0.811440000000     0.490380000000     0.386520000000     0.0420389  
H615     H      0.765630000000     0.949390000000     0.385120000000     0.0477033  
H616     H      0.681690000000     0.957640000000     0.358170000000     0.0284404  
H617     H      0.729340000000     0.555280000000     0.121280000000     0.0382701  
H618     H      0.772600000000     0.549950000000     0.157010000000     0.0431411  
H619     H      0.694470000000     0.505670000000     0.126010000000     0.0321354  
H620     H      0.717860000000     0.966870000000     0.160590000000     0.0481621  
H621     H      0.764160000000     0.552830000000     0.097870000000     0.0361056  
H622     H      0.788330000000     0.018090000000     0.135180000000     0.0420041  
H623     H      0.752140000000     0.964480000000     0.136140000000     0.0490671  
H624     H      0.671550000000     0.467740000000     0.081030000000     0.039947   
H625     H      0.007460000000     0.782710000000     0.367550000000     0.0396289  
H626     H      0.043310000000     0.780920000000     0.410460000000     0.0429561  
H627     H      0.973980000000     0.724580000000     0.373140000000     0.0355836  
H628     H      0.500120000000     0.691020000000     0.411480000000     0.0487273  
H629     H      0.044960000000     0.777700000000     0.349860000000     0.0396832  
H630     H      0.564370000000     0.749130000000     0.393680000000     0.0390496  
H631     H      0.536930000000     0.695360000000     0.391390000000     0.0467441  
H632     H      0.961120000000     0.678480000000     0.334430000000     0.0381479  
H633     H      0.523400000000     0.765280000000     0.138840000000     0.0440962  
H634     H      0.495410000000     0.799110000000     0.102090000000     0.0421687  
H635     H      0.496810000000     0.707070000000     0.138710000000     0.032645   
H636     H      0.957000000000     0.707070000000     0.098320000000     0.0470343  
H637     H      0.501850000000     0.794120000000     0.160410000000     0.0348782  
H638     H      0.958970000000     0.791920000000     0.122120000000     0.0417812  
H639     H      0.935210000000     0.736620000000     0.118200000000     0.0446684  
H640     H      0.468400000000     0.674090000000     0.183710000000     0.0371554  
H641     H      0.636850000000     0.017480000000     0.303560000000     0.0357142  
H642     H      0.604320000000     0.971830000000     0.303130000000     0.0432027  
H643     H      0.631380000000     0.544480000000     0.246910000000     0.0303448  
H644     H      0.600990000000     0.512190000000     0.210480000000     0.0477153  
H645     H      0.662170000000     0.984470000000     0.305930000000     0.0362316  
H646     H      0.627860000000     0.953920000000     0.273380000000     0.041856   
H647     H      0.627290000000     0.480120000000     0.216160000000     0.04772    
H648     H      0.674770000000     0.563900000000     0.205450000000     0.0405195  
H649     H      0.890320000000     0.953930000000     0.266230000000     0.040636   
H650     H      0.850500000000     0.959140000000     0.227170000000     0.0430101  
H651     H      0.886620000000     0.506040000000     0.301680000000     0.0322486  
H652     H      0.852360000000     0.545110000000     0.277870000000     0.0477009  
H653     H      0.910290000000     0.957510000000     0.229420000000     0.0413556  
H654     H      0.870520000000     0.990340000000     0.208090000000     0.0410314  
H655     H      0.874430000000     0.544150000000     0.241720000000     0.0483309  
H656     H      0.928670000000     0.546800000000     0.322570000000     0.0388595  
H657     H      0.543890000000     0.877620000000     0.261620000000     0.0399579  
H658     H      0.532640000000     0.839070000000     0.221950000000     0.0418802  
H659     H      0.995290000000     0.877860000000     0.304640000000     0.0327296  
H660     H      0.956920000000     0.839690000000     0.288010000000     0.046065   
H661     H      0.536200000000     0.897090000000     0.225200000000     0.041168   
H662     H      0.497750000000     0.858860000000     0.210310000000     0.0392415  
H663     H      0.950610000000     0.859350000000     0.251090000000     0.0469969  
H664     H      0.954120000000     0.918410000000     0.326330000000     0.039941   
H665     H      0.008900000000     0.612240000000     0.300370000000     0.0420578  
H666     H      0.964800000000     0.645030000000     0.283190000000     0.0409396  
H667     H      0.554390000000     0.610450000000     0.259610000000     0.0307006  
H668     H      0.544130000000     0.650180000000     0.221830000000     0.0473602  
H669     H      0.974720000000     0.589330000000     0.292110000000     0.0391332  
H670     H      0.961570000000     0.623320000000     0.247080000000     0.0434816  
H671     H      0.511060000000     0.630040000000     0.206220000000     0.0442278  
H672     H      0.581380000000     0.567740000000     0.224280000000     0.0339099  
H673     H      0.863160000000     0.703160000000     0.478550000000     0.0390438  
H674     H      0.901830000000     0.706860000000     0.519840000000     0.0433839  
H675     H      0.864590000000     0.752760000000     0.942180000000     0.0316784  
H676     H      0.906110000000     0.786750000000     0.960240000000     0.046089   
H677     H      0.843790000000     0.706260000000     0.515850000000     0.0390409  
H678     H      0.883910000000     0.740930000000     0.535630000000     0.0421789  
H679     H      0.887140000000     0.793100000000     0.997450000000     0.0489429  
H680     H      0.823560000000     0.795950000000     0.924830000000     0.0398911  
H681     H      0.635670000000     0.789640000000     0.007530000000     0.039268   
H682     H      0.593910000000     0.788580000000     0.544790000000     0.0424702  
H683     H      0.631850000000     0.730370000000     0.978420000000     0.036451   
H684     H      0.596440000000     0.696030000000     0.007750000000     0.0476919  
H685     H      0.654220000000     0.788510000000     0.545220000000     0.0385533  
H686     H      0.612640000000     0.759490000000     0.568100000000     0.0392369  
H687     H      0.617220000000     0.703510000000     0.543910000000     0.0476791  
H688     H      0.671620000000     0.685540000000     0.965930000000     0.0377947  
H689     H      0.746620000000     0.885470000000     0.553500000000     0.0397991  
H690     H      0.783800000000     0.845400000000     0.542430000000     0.0439577  
H691     H      0.704040000000     0.883260000000     0.005870000000     0.0308386  
H692     H      0.720730000000     0.847690000000     0.964190000000     0.0472779  
H693     H      0.782710000000     0.904360000000     0.544760000000     0.0426322  
H694     H      0.797520000000     0.864820000000     0.507890000000     0.0412677  
H695     H      0.757000000000     0.868360000000     0.959370000000     0.0475865  
H696     H      0.677970000000     0.922100000000     0.965510000000     0.036974   
H697     H      0.798790000000     0.620140000000     0.506190000000     0.0400134  
H698     H      0.773100000000     0.653510000000     0.545110000000     0.0417247  
H699     H      0.768180000000     0.619310000000     0.954020000000     0.0305508  
H700     H      0.724430000000     0.654570000000     0.956620000000     0.0470433  
H701     H      0.784250000000     0.597230000000     0.538600000000     0.0384441  
H702     H      0.738040000000     0.630510000000     0.543300000000     0.0427852  
H703     H      0.706640000000     0.632330000000     0.987470000000     0.0474574  
H704     H      0.742730000000     0.565950000000     0.926950000000     0.0377396  
H705     H      0.764030000000     0.543310000000     0.878190000000     0.0392727  
H706     H      0.806070000000     0.523670000000     0.911740000000     0.0388595  
H707     H      0.718230000000     0.002030000000     0.879490000000     0.0298926  
H708     H      0.732650000000     0.956180000000     0.910390000000     0.0467071  
H709     H      0.796920000000     0.534420000000     0.853430000000     0.0372818  
H710     H      0.811440000000     0.490380000000     0.886520000000     0.04213    
H711     H      0.765630000000     0.949390000000     0.885120000000     0.0477492  
H712     H      0.681690000000     0.957640000000     0.858180000000     0.0284787  
H713     H      0.729340000000     0.555280000000     0.621280000000     0.0383276  
H714     H      0.772600000000     0.549950000000     0.657010000000     0.0431531  
H715     H      0.694470000000     0.505670000000     0.626010000000     0.0321764  
H716     H      0.717860000000     0.966870000000     0.660600000000     0.0481644  
H717     H      0.764160000000     0.552830000000     0.597870000000     0.0361714  
H718     H      0.788330000000     0.018090000000     0.635180000000     0.0420202  
H719     H      0.752140000000     0.964480000000     0.636140000000     0.0490714  
H720     H      0.671550000000     0.467740000000     0.581030000000     0.0400997  
H721     H      0.007460000000     0.782710000000     0.867550000000     0.0396727  
H722     H      0.043310000000     0.780920000000     0.910460000000     0.043114   
H723     H      0.973980000000     0.724580000000     0.873140000000     0.035618   
H724     H      0.500120000000     0.691020000000     0.911480000000     0.0488812  
H725     H      0.044960000000     0.777700000000     0.849860000000     0.0397127  
H726     H      0.564370000000     0.749130000000     0.893680000000     0.0391472  
H727     H      0.536930000000     0.695360000000     0.891390000000     0.0468368  
H728     H      0.961120000000     0.678480000000     0.834430000000     0.03817    
H729     H      0.523400000000     0.765280000000     0.638840000000     0.0441032  
H730     H      0.495410000000     0.799110000000     0.602090000000     0.0422262  
H731     H      0.496810000000     0.707070000000     0.638710000000     0.0326645  
H732     H      0.957000000000     0.707070000000     0.598320000000     0.0470845  
H733     H      0.501850000000     0.794120000000     0.660410000000     0.0348942  
H734     H      0.958970000000     0.791920000000     0.622120000000     0.0418383  
H735     H      0.935210000000     0.736620000000     0.618200000000     0.0447098  
H736     H      0.468400000000     0.674090000000     0.683710000000     0.0371631  
H737     H      0.636850000000     0.017480000000     0.803560000000     0.0357484  
H738     H      0.604320000000     0.971830000000     0.803140000000     0.0432148  
H739     H      0.631380000000     0.544480000000     0.746910000000     0.0303515  
H740     H      0.600990000000     0.512190000000     0.710480000000     0.0477373  
H741     H      0.662170000000     0.984470000000     0.805920000000     0.0362649  
H742     H      0.627860000000     0.953920000000     0.773380000000     0.041852   
H743     H      0.627290000000     0.480120000000     0.716160000000     0.0477338  
H744     H      0.674770000000     0.563900000000     0.705450000000     0.0405294  
H745     H      0.890320000000     0.953930000000     0.766230000000     0.0406484  
H746     H      0.850500000000     0.959140000000     0.727170000000     0.043019   
H747     H      0.886620000000     0.506040000000     0.801680000000     0.0322801  
H748     H      0.852360000000     0.545110000000     0.777870000000     0.0477137  
H749     H      0.910290000000     0.957510000000     0.729420000000     0.0413699  
H750     H      0.870520000000     0.990340000000     0.708090000000     0.0410508  
H751     H      0.874430000000     0.544150000000     0.741720000000     0.0483388  
H752     H      0.928670000000     0.546800000000     0.822560000000     0.0389365  
H753     H      0.543890000000     0.877620000000     0.761620000000     0.0399702  
H754     H      0.532640000000     0.839070000000     0.721950000000     0.0418976  
H755     H      0.995290000000     0.877860000000     0.804640000000     0.0327637  
H756     H      0.956920000000     0.839690000000     0.788010000000     0.0460806  
H757     H      0.536200000000     0.897090000000     0.725200000000     0.0411843  
H758     H      0.497750000000     0.858860000000     0.710310000000     0.0392626  
H759     H      0.950610000000     0.859350000000     0.751090000000     0.0470052  
H760     H      0.954120000000     0.918410000000     0.826330000000     0.040005   
H761     H      0.008900000000     0.612240000000     0.800370000000     0.0420919  
H762     H      0.964800000000     0.645030000000     0.783190000000     0.0409489  
H763     H      0.554390000000     0.610450000000     0.759610000000     0.0307179  
H764     H      0.544130000000     0.650180000000     0.721830000000     0.0473371  
H765     H      0.974720000000     0.589330000000     0.792110000000     0.0391589  
H766     H      0.961570000000     0.623320000000     0.747080000000     0.043486   
H767     H      0.511060000000     0.630040000000     0.706220000000     0.0442092  
H768     H      0.581380000000     0.567740000000     0.724280000000     0.0339105  
N1       N      0.341930000000     0.246580000000     0.486030000000    -0.170057   
N2       N      0.407280000000     0.248850000000     0.492640000000    -0.163359   
N3       N      0.157070000000     0.246900000000     0.017970000000    -0.168436   
N4       N      0.092010000000     0.241930000000     0.026840000000    -0.163828   
N5       N      0.246640000000     0.408130000000     0.509600000000    -0.169205   
N6       N      0.253730000000     0.343480000000     0.501850000000    -0.163977   
N7       N      0.258640000000     0.093650000000     0.995190000000    -0.170451   
N8       N      0.246460000000     0.156950000000     0.002220000000    -0.164293   
N9       N      0.258170000000     0.502950000000     0.350560000000    -0.170183   
N10      N      0.270040000000     0.489160000000     0.413470000000    -0.165152   
N11      N      0.234340000000     0.012760000000     0.097480000000    -0.172983   
N12      N      0.248350000000     0.006380000000     0.161510000000    -0.164309   
N13      N      0.514680000000     0.238230000000     0.348350000000    -0.16966    
N14      N      0.521640000000     0.236030000000     0.414150000000    -0.164114   
N15      N      0.983450000000     0.248010000000     0.162430000000    -0.170737   
N16      N      0.976380000000     0.253190000000     0.097220000000    -0.164723   
N17      N      0.161840000000     0.508740000000     0.261790000000    -0.171892   
N18      N      0.099870000000     0.490280000000     0.256140000000    -0.164962   
N19      N      0.412760000000     0.996950000000     0.260330000000    -0.169349   
N20      N      0.348500000000     0.003460000000     0.250300000000    -0.165916   
N21      N      0.000620000000     0.400820000000     0.260850000000    -0.171094   
N22      N      0.993860000000     0.336520000000     0.254250000000    -0.164553   
N23      N      0.511490000000     0.086670000000     0.257920000000    -0.170013   
N24      N      0.502530000000     0.150570000000     0.250200000000    -0.164664   
N25      N      0.341930000000     0.246580000000     0.986030000000    -0.170522   
N26      N      0.407280000000     0.248850000000     0.992640000000    -0.162701   
N27      N      0.157070000000     0.246900000000     0.517970000000    -0.168839   
N28      N      0.092010000000     0.241930000000     0.526840000000    -0.163668   
N29      N      0.246640000000     0.408130000000     0.009600000000    -0.169993   
N30      N      0.253730000000     0.343480000000     0.001850000000    -0.164249   
N31      N      0.258640000000     0.093650000000     0.495190000000    -0.170937   
N32      N      0.246460000000     0.156950000000     0.502220000000    -0.163791   
N33      N      0.258170000000     0.502950000000     0.850560000000    -0.170245   
N34      N      0.270040000000     0.489160000000     0.913470000000    -0.165104   
N35      N      0.234340000000     0.012760000000     0.597480000000    -0.172949   
N36      N      0.248350000000     0.006380000000     0.661510000000    -0.164314   
N37      N      0.514680000000     0.238230000000     0.848350000000    -0.169684   
N38      N      0.521640000000     0.236030000000     0.914150000000    -0.16395    
N39      N      0.983450000000     0.248010000000     0.662420000000    -0.170645   
N40      N      0.976380000000     0.253190000000     0.597220000000    -0.164718   
N41      N      0.161840000000     0.508740000000     0.761790000000    -0.171886   
N42      N      0.099870000000     0.490280000000     0.756140000000    -0.164966   
N43      N      0.412760000000     0.996950000000     0.760330000000    -0.169342   
N44      N      0.348500000000     0.003460000000     0.750300000000    -0.165916   
N45      N      0.000620000000     0.400820000000     0.760850000000    -0.171086   
N46      N      0.993860000000     0.336520000000     0.754250000000    -0.164542   
N47      N      0.511490000000     0.086670000000     0.757920000000    -0.170002   
N48      N      0.502530000000     0.150570000000     0.750200000000    -0.164679   
N49      N      0.341930000000     0.746580000000     0.486030000000    -0.170056   
N50      N      0.407280000000     0.748850000000     0.492640000000    -0.163299   
N51      N      0.157070000000     0.746890000000     0.017970000000    -0.168438   
N52      N      0.092010000000     0.741930000000     0.026840000000    -0.163816   
N53      N      0.246640000000     0.908130000000     0.509600000000    -0.169      
N54      N      0.253730000000     0.843480000000     0.501850000000    -0.163974   
N55      N      0.258640000000     0.593650000000     0.995190000000    -0.170535   
N56      N      0.246460000000     0.656950000000     0.002220000000    -0.164291   
N57      N      0.258170000000     0.002960000000     0.350560000000    -0.171928   
N58      N      0.270040000000     0.989160000000     0.413470000000    -0.162646   
N59      N      0.234340000000     0.512760000000     0.097480000000    -0.171208   
N60      N      0.248350000000     0.506380000000     0.161510000000    -0.16353    
N61      N      0.514680000000     0.738230000000     0.348350000000    -0.169658   
N62      N      0.521640000000     0.736030000000     0.414150000000    -0.164101   
N63      N      0.983450000000     0.748010000000     0.162430000000    -0.170741   
N64      N      0.976380000000     0.753190000000     0.097220000000    -0.164706   
N65      N      0.161840000000     0.008740000000     0.261790000000    -0.173695   
N66      N      0.099870000000     0.990280000000     0.256140000000    -0.162636   
N67      N      0.412760000000     0.496950000000     0.260330000000    -0.171064   
N68      N      0.348500000000     0.503460000000     0.250300000000    -0.16473    
N69      N      0.000620000000     0.900820000000     0.260850000000    -0.171104   
N70      N      0.993860000000     0.836520000000     0.254250000000    -0.164546   
N71      N      0.511490000000     0.586670000000     0.257920000000    -0.169866   
N72      N      0.502530000000     0.650570000000     0.250200000000    -0.164657   
N73      N      0.341930000000     0.746580000000     0.986030000000    -0.170523   
N74      N      0.407280000000     0.748850000000     0.992640000000    -0.16264    
N75      N      0.157070000000     0.746890000000     0.517970000000    -0.168842   
N76      N      0.092010000000     0.741930000000     0.526840000000    -0.163656   
N77      N      0.246640000000     0.908130000000     0.009600000000    -0.16979    
N78      N      0.253730000000     0.843480000000     0.001850000000    -0.164248   
N79      N      0.258640000000     0.593650000000     0.495190000000    -0.171023   
N80      N      0.246460000000     0.656950000000     0.502220000000    -0.163786   
N81      N      0.258170000000     0.002960000000     0.850560000000    -0.171988   
N82      N      0.270040000000     0.989160000000     0.913470000000    -0.162601   
N83      N      0.234340000000     0.512760000000     0.597480000000    -0.171167   
N84      N      0.248350000000     0.506380000000     0.661510000000    -0.163533   
N85      N      0.514680000000     0.738230000000     0.848350000000    -0.169681   
N86      N      0.521640000000     0.736030000000     0.914150000000    -0.163937   
N87      N      0.983450000000     0.748010000000     0.662420000000    -0.170649   
N88      N      0.976380000000     0.753190000000     0.597220000000    -0.164702   
N89      N      0.161840000000     0.008740000000     0.761790000000    -0.17369    
N90      N      0.099870000000     0.990280000000     0.756140000000    -0.162638   
N91      N      0.412760000000     0.496950000000     0.760330000000    -0.171058   
N92      N      0.348500000000     0.503460000000     0.750300000000    -0.164727   
N93      N      0.000620000000     0.900820000000     0.760850000000    -0.171096   
N94      N      0.993860000000     0.836520000000     0.754250000000    -0.164535   
N95      N      0.511490000000     0.586670000000     0.757920000000    -0.169855   
N96      N      0.502530000000     0.650570000000     0.750200000000    -0.164672   
N97      N      0.841930000000     0.246580000000     0.486030000000    -0.170056   
N98      N      0.907280000000     0.248850000000     0.492640000000    -0.163264   
N99      N      0.657070000000     0.246900000000     0.017970000000    -0.168435   
N100     N      0.592010000000     0.241930000000     0.026840000000    -0.16379    
N101     N      0.746640000000     0.408130000000     0.509600000000    -0.169156   
N102     N      0.753730000000     0.343480000000     0.501850000000    -0.163976   
N103     N      0.758640000000     0.093650000000     0.995190000000    -0.170452   
N104     N      0.746460000000     0.156950000000     0.002220000000    -0.164289   
N105     N      0.758170000000     0.502950000000     0.350560000000    -0.170183   
N106     N      0.770040000000     0.489160000000     0.413470000000    -0.165134   
N107     N      0.734340000000     0.012760000000     0.097480000000    -0.173027   
N108     N      0.748350000000     0.006380000000     0.161510000000    -0.164309   
N109     N      0.014680000000     0.238230000000     0.348350000000    -0.170049   
N110     N      0.021640000000     0.236030000000     0.414150000000    -0.164081   
N111     N      0.483450000000     0.248010000000     0.162430000000    -0.170362   
N112     N      0.476380000000     0.253190000000     0.097220000000    -0.164879   
N113     N      0.661840000000     0.508740000000     0.261790000000    -0.171893   
N114     N      0.599870000000     0.490280000000     0.256140000000    -0.164894   
N115     N      0.912760000000     0.996950000000     0.260330000000    -0.169286   
N116     N      0.848500000000     0.003460000000     0.250300000000    -0.165912   
N117     N      0.500620000000     0.400820000000     0.260850000000    -0.170575   
N118     N      0.493860000000     0.336520000000     0.254250000000    -0.165022   
N119     N      0.011490000000     0.086670000000     0.257920000000    -0.170541   
N120     N      0.002530000000     0.150570000000     0.250200000000    -0.164896   
N121     N      0.841930000000     0.246580000000     0.986030000000    -0.17052    
N122     N      0.907280000000     0.248850000000     0.992640000000    -0.162609   
N123     N      0.657070000000     0.246900000000     0.517970000000    -0.168838   
N124     N      0.592010000000     0.241930000000     0.526840000000    -0.163631   
N125     N      0.746640000000     0.408130000000     0.009600000000    -0.169943   
N126     N      0.753730000000     0.343480000000     0.001850000000    -0.164248   
N127     N      0.758640000000     0.093650000000     0.495190000000    -0.170938   
N128     N      0.746460000000     0.156950000000     0.502220000000    -0.163787   
N129     N      0.758170000000     0.502950000000     0.850560000000    -0.170245   
N130     N      0.770040000000     0.489160000000     0.913470000000    -0.165086   
N131     N      0.734340000000     0.012760000000     0.597480000000    -0.172993   
N132     N      0.748350000000     0.006380000000     0.661510000000    -0.164314   
N133     N      0.014680000000     0.238230000000     0.848350000000    -0.170071   
N134     N      0.021640000000     0.236030000000     0.914150000000    -0.163918   
N135     N      0.483450000000     0.248010000000     0.662420000000    -0.170271   
N136     N      0.476380000000     0.253190000000     0.597220000000    -0.164875   
N137     N      0.661840000000     0.508740000000     0.761790000000    -0.171888   
N138     N      0.599870000000     0.490280000000     0.756140000000    -0.164899   
N139     N      0.912760000000     0.996950000000     0.760330000000    -0.169279   
N140     N      0.848500000000     0.003460000000     0.750300000000    -0.165911   
N141     N      0.500620000000     0.400820000000     0.760850000000    -0.170569   
N142     N      0.493860000000     0.336520000000     0.754250000000    -0.16501    
N143     N      0.011490000000     0.086670000000     0.757920000000    -0.170529   
N144     N      0.002530000000     0.150570000000     0.750200000000    -0.16491    
N145     N      0.841930000000     0.746580000000     0.486030000000    -0.170056   
N146     N      0.907280000000     0.748850000000     0.492640000000    -0.163204   
N147     N      0.657070000000     0.746890000000     0.017970000000    -0.168437   
N148     N      0.592010000000     0.741930000000     0.026840000000    -0.163778   
N149     N      0.746640000000     0.908130000000     0.509600000000    -0.168951   
N150     N      0.753730000000     0.843480000000     0.501850000000    -0.163973   
N151     N      0.758640000000     0.593650000000     0.995190000000    -0.170537   
N152     N      0.746460000000     0.656950000000     0.002220000000    -0.164286   
N153     N      0.758170000000     0.002960000000     0.350560000000    -0.171932   
N154     N      0.770040000000     0.989160000000     0.413470000000    -0.162621   
N155     N      0.734340000000     0.512760000000     0.097480000000    -0.171246   
N156     N      0.748350000000     0.506380000000     0.161510000000    -0.163528   
N157     N      0.014680000000     0.738230000000     0.348350000000    -0.17005    
N158     N      0.021640000000     0.736030000000     0.414150000000    -0.164067   
N159     N      0.483450000000     0.748010000000     0.162430000000    -0.170363   
N160     N      0.476380000000     0.753190000000     0.097220000000    -0.164864   
N161     N      0.661840000000     0.008740000000     0.261790000000    -0.173703   
N162     N      0.599870000000     0.990280000000     0.256140000000    -0.162559   
N163     N      0.912760000000     0.496950000000     0.260330000000    -0.171004   
N164     N      0.848500000000     0.503460000000     0.250300000000    -0.164723   
N165     N      0.500620000000     0.900820000000     0.260850000000    -0.170581   
N166     N      0.493860000000     0.836520000000     0.254250000000    -0.165018   
N167     N      0.011490000000     0.586670000000     0.257920000000    -0.170402   
N168     N      0.002530000000     0.650570000000     0.250200000000    -0.164892   
N169     N      0.841930000000     0.746580000000     0.986030000000    -0.170521   
N170     N      0.907280000000     0.748850000000     0.992640000000    -0.162547   
N171     N      0.657070000000     0.746890000000     0.517970000000    -0.168841   
N172     N      0.592010000000     0.741930000000     0.526840000000    -0.163618   
N173     N      0.746640000000     0.908130000000     0.009600000000    -0.16974    
N174     N      0.753730000000     0.843480000000     0.001850000000    -0.164246   
N175     N      0.758640000000     0.593650000000     0.495190000000    -0.171023   
N176     N      0.746460000000     0.656950000000     0.502220000000    -0.163782   
N177     N      0.758170000000     0.002960000000     0.850560000000    -0.171993   
N178     N      0.770040000000     0.989160000000     0.913470000000    -0.162577   
N179     N      0.734340000000     0.512760000000     0.597480000000    -0.171205   
N180     N      0.748350000000     0.506380000000     0.661510000000    -0.163531   
N181     N      0.014680000000     0.738230000000     0.848350000000    -0.170072   
N182     N      0.021640000000     0.736030000000     0.914150000000    -0.163904   
N183     N      0.483450000000     0.748010000000     0.662420000000    -0.170271   
N184     N      0.476380000000     0.753190000000     0.597220000000    -0.16486    
N185     N      0.661840000000     0.008740000000     0.761790000000    -0.173699   
N186     N      0.599870000000     0.990280000000     0.756140000000    -0.162561   
N187     N      0.912760000000     0.496950000000     0.760330000000    -0.170999   
N188     N      0.848500000000     0.503460000000     0.750300000000    -0.16472    
N189     N      0.500620000000     0.900820000000     0.760850000000    -0.170575   
N190     N      0.493860000000     0.836520000000     0.754250000000    -0.165006   
N191     N      0.011490000000     0.586670000000     0.757920000000    -0.17039    
N192     N      0.002530000000     0.650570000000     0.750200000000    -0.164906   
O1       O      0.507290000000     0.040290000000     0.232000000000    -0.394369   
O2       O      0.505990000000     0.446230000000     0.233830000000    -0.397939   
O3       O      0.458720000000     0.492810000000     0.233690000000    -0.398722   
O4       O      0.052780000000     0.993290000000     0.231550000000    -0.402576   
O5       O      0.053820000000     0.989750000000     0.283910000000    -0.396079   
O6       O      0.459540000000     0.498510000000     0.285940000000    -0.398686   
O7       O      0.001690000000     0.447520000000     0.286180000000    -0.399386   
O8       O      0.010040000000     0.040820000000     0.284490000000    -0.402196   
O9       O      0.475490000000     0.195410000000     0.258230000000    -0.400589   
O10      O      0.471380000000     0.289050000000     0.262440000000    -0.397471   
O11      O      0.465570000000     0.243560000000     0.212840000000    -0.394309   
O12      O      0.481260000000     0.239400000000     0.306700000000    -0.400206   
O13      O      0.032450000000     0.244360000000     0.297980000000    -0.39457    
O14      O      0.016850000000     0.247300000000     0.203960000000    -0.402321   
O15      O      0.022240000000     0.291900000000     0.251440000000    -0.400607   
O16      O      0.026510000000     0.198120000000     0.248040000000    -0.394978   
O17      O      0.301110000000     0.478440000000     0.249850000000    -0.394944   
O18      O      0.207070000000     0.481250000000     0.261770000000    -0.397197   
O19      O      0.247880000000     0.480450000000     0.208460000000    -0.398124   
O20      O      0.258430000000     0.478550000000     0.302950000000    -0.395543   
O21      O      0.257680000000     0.030270000000     0.304380000000    -0.394919   
O22      O      0.255420000000     0.031580000000     0.208590000000    -0.394387   
O23      O      0.208910000000     0.032810000000     0.257060000000    -0.398766   
O24      O      0.302840000000     0.029740000000     0.255950000000    -0.402967   
O25      O      0.268680000000     0.005870000000     0.057230000000    -0.397386   
O26      O      0.287020000000     0.996810000000     0.463920000000    -0.391622   
O27      O      0.280580000000     0.047070000000     0.507250000000    -0.398885   
O28      O      0.274530000000     0.453390000000     0.014820000000    -0.393285   
O29      O      0.223570000000     0.455680000000     0.004560000000    -0.400081   
O30      O      0.230210000000     0.048630000000     0.494000000000    -0.39444    
O31      O      0.235860000000     0.495340000000     0.453950000000    -0.400346   
O32      O      0.217590000000     0.507230000000     0.046700000000    -0.396806   
O33      O      0.047510000000     0.269740000000     0.016590000000    -0.393271   
O34      O      0.455500000000     0.272360000000     0.991950000000    -0.390142   
O35      O      0.490140000000     0.275120000000     0.050100000000    -0.395279   
O36      O      0.014180000000     0.266570000000     0.457870000000    -0.393399   
O37      O      0.006890000000     0.215570000000     0.461510000000    -0.401372   
O38      O      0.489020000000     0.223610000000     0.054470000000    -0.40025    
O39      O      0.452210000000     0.221450000000     0.500280000000    -0.399771   
O40      O      0.045220000000     0.218130000000     0.516570000000    -0.397706   
O41      O      0.198410000000     0.248190000000     0.484200000000    -0.397237   
O42      O      0.291740000000     0.252110000000     0.468080000000    -0.393686   
O43      O      0.245320000000     0.203330000000     0.475840000000    -0.396035   
O44      O      0.243550000000     0.297370000000     0.477120000000    -0.396927   
O45      O      0.257940000000     0.296960000000     0.027540000000    -0.395784   
O46      O      0.251470000000     0.203250000000     0.027980000000    -0.396529   
O47      O      0.300430000000     0.246360000000     0.019560000000    -0.397463   
O48      O      0.207100000000     0.253260000000     0.035790000000    -0.3903     
O49      O      0.507290000000     0.040290000000     0.732000000000    -0.394361   
O50      O      0.505990000000     0.446230000000     0.733830000000    -0.397927   
O51      O      0.458720000000     0.492810000000     0.733690000000    -0.398712   
O52      O      0.052780000000     0.993290000000     0.731550000000    -0.402659   
O53      O      0.053820000000     0.989750000000     0.783910000000    -0.395963   
O54      O      0.459540000000     0.498510000000     0.785940000000    -0.398664   
O55      O      0.001690000000     0.447520000000     0.786180000000    -0.399363   
O56      O      0.010040000000     0.040820000000     0.784490000000    -0.402172   
O57      O      0.475490000000     0.195410000000     0.758230000000    -0.400602   
O58      O      0.471380000000     0.289050000000     0.762440000000    -0.397467   
O59      O      0.465570000000     0.243560000000     0.712850000000    -0.394278   
O60      O      0.481260000000     0.239400000000     0.806700000000    -0.40026    
O61      O      0.032450000000     0.244360000000     0.797990000000    -0.394573   
O62      O      0.016850000000     0.247300000000     0.703960000000    -0.402219   
O63      O      0.022240000000     0.291900000000     0.751430000000    -0.400561   
O64      O      0.026510000000     0.198120000000     0.748040000000    -0.394965   
O65      O      0.301110000000     0.478440000000     0.749850000000    -0.394952   
O66      O      0.207070000000     0.481250000000     0.761770000000    -0.397211   
O67      O      0.247880000000     0.480450000000     0.708460000000    -0.398144   
O68      O      0.258430000000     0.478550000000     0.802940000000    -0.395511   
O69      O      0.257680000000     0.030270000000     0.804390000000    -0.394779   
O70      O      0.255420000000     0.031580000000     0.708590000000    -0.394366   
O71      O      0.208910000000     0.032810000000     0.757060000000    -0.398751   
O72      O      0.302840000000     0.029740000000     0.755950000000    -0.40295    
O73      O      0.268680000000     0.005870000000     0.557230000000    -0.397512   
O74      O      0.287020000000     0.996810000000     0.963920000000    -0.390689   
O75      O      0.280580000000     0.047070000000     0.007250000000    -0.400049   
O76      O      0.274530000000     0.453390000000     0.514820000000    -0.393141   
O77      O      0.223570000000     0.455680000000     0.504560000000    -0.398799   
O78      O      0.230210000000     0.048630000000     0.994000000000    -0.394835   
O79      O      0.235860000000     0.495340000000     0.953950000000    -0.400528   
O80      O      0.217590000000     0.507230000000     0.546700000000    -0.395845   
O81      O      0.047510000000     0.269740000000     0.516580000000    -0.393303   
O82      O      0.455500000000     0.272360000000     0.491950000000    -0.390817   
O83      O      0.490140000000     0.275120000000     0.550100000000    -0.395398   
O84      O      0.014180000000     0.266570000000     0.957870000000    -0.392512   
O85      O      0.006890000000     0.215570000000     0.961510000000    -0.400522   
O86      O      0.489020000000     0.223610000000     0.554470000000    -0.400371   
O87      O      0.452210000000     0.221450000000     0.000280000000    -0.400951   
O88      O      0.045220000000     0.218130000000     0.016570000000    -0.397833   
O89      O      0.198410000000     0.248190000000     0.984200000000    -0.396004   
O90      O      0.291740000000     0.252110000000     0.968080000000    -0.393988   
O91      O      0.245320000000     0.203330000000     0.975840000000    -0.394937   
O92      O      0.243550000000     0.297370000000     0.977110000000    -0.395616   
O93      O      0.257940000000     0.296960000000     0.527540000000    -0.396137   
O94      O      0.251470000000     0.203250000000     0.527980000000    -0.396832   
O95      O      0.300430000000     0.246360000000     0.519560000000    -0.396303   
O96      O      0.207100000000     0.253260000000     0.535790000000    -0.390638   
O97      O      0.507290000000     0.540290000000     0.232000000000    -0.391992   
O98      O      0.505990000000     0.946230000000     0.233830000000    -0.398291   
O99      O      0.458720000000     0.992810000000     0.233690000000    -0.398333   
O100     O      0.052780000000     0.493290000000     0.231550000000    -0.403449   
O101     O      0.053820000000     0.489750000000     0.283910000000    -0.396491   
O102     O      0.459540000000     0.998510000000     0.285940000000    -0.397806   
O103     O      0.001690000000     0.947520000000     0.286180000000    -0.399765   
O104     O      0.010040000000     0.540820000000     0.284490000000    -0.399812   
O105     O      0.475490000000     0.695410000000     0.258230000000    -0.400587   
O106     O      0.471380000000     0.789050000000     0.262440000000    -0.397469   
O107     O      0.465570000000     0.743560000000     0.212840000000    -0.39431    
O108     O      0.481260000000     0.739400000000     0.306700000000    -0.400209   
O109     O      0.032450000000     0.744360000000     0.297980000000    -0.394569   
O110     O      0.016850000000     0.747300000000     0.203960000000    -0.402328   
O111     O      0.022240000000     0.791900000000     0.251440000000    -0.400613   
O112     O      0.026510000000     0.698120000000     0.248040000000    -0.394974   
O113     O      0.301110000000     0.978440000000     0.249850000000    -0.392011   
O114     O      0.207070000000     0.981250000000     0.261770000000    -0.394323   
O115     O      0.247880000000     0.980450000000     0.208460000000    -0.395189   
O116     O      0.258430000000     0.978550000000     0.302950000000    -0.392771   
O117     O      0.257680000000     0.530270000000     0.304380000000    -0.39574    
O118     O      0.255420000000     0.531580000000     0.208590000000    -0.395282   
O119     O      0.208910000000     0.532810000000     0.257060000000    -0.399541   
O120     O      0.302840000000     0.529740000000     0.255950000000    -0.403864   
O121     O      0.268680000000     0.505870000000     0.057230000000    -0.397327   
O122     O      0.287020000000     0.496810000000     0.463920000000    -0.394637   
O123     O      0.280580000000     0.547070000000     0.507250000000    -0.399179   
O124     O      0.274530000000     0.953380000000     0.014820000000    -0.390973   
O125     O      0.223570000000     0.955680000000     0.004560000000    -0.39785    
O126     O      0.230210000000     0.548630000000     0.494000000000    -0.394755   
O127     O      0.235860000000     0.995340000000     0.453950000000    -0.397493   
O128     O      0.217590000000     0.007230000000     0.046700000000    -0.397098   
O129     O      0.047510000000     0.769740000000     0.016590000000    -0.39323    
O130     O      0.455500000000     0.772370000000     0.991950000000    -0.389947   
O131     O      0.490140000000     0.775120000000     0.050100000000    -0.395228   
O132     O      0.014180000000     0.766570000000     0.457870000000    -0.393366   
O133     O      0.006890000000     0.715570000000     0.461510000000    -0.401331   
O134     O      0.489020000000     0.723610000000     0.054470000000    -0.40021    
O135     O      0.452210000000     0.721450000000     0.500280000000    -0.399677   
O136     O      0.045220000000     0.718130000000     0.516570000000    -0.397664   
O137     O      0.198410000000     0.748190000000     0.484200000000    -0.397246   
O138     O      0.291740000000     0.752110000000     0.468080000000    -0.393691   
O139     O      0.245320000000     0.703330000000     0.475840000000    -0.39604    
O140     O      0.243550000000     0.797370000000     0.477120000000    -0.396924   
O141     O      0.257940000000     0.796960000000     0.027540000000    -0.39577    
O142     O      0.251470000000     0.703250000000     0.027980000000    -0.396532   
O143     O      0.300430000000     0.746360000000     0.019560000000    -0.39746    
O144     O      0.207100000000     0.753260000000     0.035790000000    -0.390286   
O145     O      0.507290000000     0.540290000000     0.732000000000    -0.391981   
O146     O      0.505990000000     0.946230000000     0.733830000000    -0.398279   
O147     O      0.458720000000     0.992810000000     0.733690000000    -0.398322   
O148     O      0.052780000000     0.493290000000     0.731550000000    -0.403534   
O149     O      0.053820000000     0.489750000000     0.783910000000    -0.396376   
O150     O      0.459540000000     0.998510000000     0.785940000000    -0.397784   
O151     O      0.001690000000     0.947520000000     0.786180000000    -0.399742   
O152     O      0.010040000000     0.540820000000     0.784490000000    -0.399787   
O153     O      0.475490000000     0.695410000000     0.758230000000    -0.4006     
O154     O      0.471380000000     0.789050000000     0.762440000000    -0.397464   
O155     O      0.465570000000     0.743560000000     0.712850000000    -0.394279   
O156     O      0.481260000000     0.739400000000     0.806700000000    -0.400264   
O157     O      0.032450000000     0.744360000000     0.797990000000    -0.394573   
O158     O      0.016850000000     0.747300000000     0.703960000000    -0.402226   
O159     O      0.022240000000     0.791900000000     0.751430000000    -0.400567   
O160     O      0.026510000000     0.698120000000     0.748040000000    -0.394961   
O161     O      0.301110000000     0.978440000000     0.749850000000    -0.392016   
O162     O      0.207070000000     0.981250000000     0.761770000000    -0.394334   
O163     O      0.247880000000     0.980450000000     0.708460000000    -0.395204   
O164     O      0.258430000000     0.978550000000     0.802940000000    -0.392739   
O165     O      0.257680000000     0.530270000000     0.804390000000    -0.395599   
O166     O      0.255420000000     0.531580000000     0.708590000000    -0.395262   
O167     O      0.208910000000     0.532810000000     0.757060000000    -0.399527   
O168     O      0.302840000000     0.529740000000     0.755950000000    -0.403847   
O169     O      0.268680000000     0.505870000000     0.557230000000    -0.397453   
O170     O      0.287020000000     0.496810000000     0.963920000000    -0.393693   
O171     O      0.280580000000     0.547070000000     0.007250000000    -0.400347   
O172     O      0.274530000000     0.953380000000     0.514820000000    -0.390816   
O173     O      0.223570000000     0.955680000000     0.504560000000    -0.39656    
O174     O      0.230210000000     0.548630000000     0.994000000000    -0.39515    
O175     O      0.235860000000     0.995340000000     0.953950000000    -0.397681   
O176     O      0.217590000000     0.007230000000     0.546700000000    -0.396144   
O177     O      0.047510000000     0.769740000000     0.516580000000    -0.393263   
O178     O      0.455500000000     0.772370000000     0.491950000000    -0.390624   
O179     O      0.490140000000     0.775120000000     0.550100000000    -0.395347   
O180     O      0.014180000000     0.766570000000     0.957870000000    -0.392477   
O181     O      0.006890000000     0.715570000000     0.961510000000    -0.400478   
O182     O      0.489020000000     0.723610000000     0.554470000000    -0.400332   
O183     O      0.452210000000     0.721450000000     0.000280000000    -0.400861   
O184     O      0.045220000000     0.718130000000     0.016570000000    -0.397791   
O185     O      0.198410000000     0.748190000000     0.984200000000    -0.39601    
O186     O      0.291740000000     0.752110000000     0.968080000000    -0.393994   
O187     O      0.245320000000     0.703330000000     0.975840000000    -0.394938   
O188     O      0.243550000000     0.797370000000     0.977110000000    -0.39561    
O189     O      0.257940000000     0.796960000000     0.527540000000    -0.396125   
O190     O      0.251470000000     0.703250000000     0.527980000000    -0.396836   
O191     O      0.300430000000     0.746360000000     0.519560000000    -0.396297   
O192     O      0.207100000000     0.753260000000     0.535790000000    -0.390625   
O193     O      0.007290000000     0.040290000000     0.232000000000    -0.394477   
O194     O      0.005990000000     0.446230000000     0.233830000000    -0.39805    
O195     O      0.958720000000     0.492810000000     0.233690000000    -0.398058   
O196     O      0.552780000000     0.993290000000     0.231550000000    -0.402759   
O197     O      0.553820000000     0.989750000000     0.283910000000    -0.396248   
O198     O      0.959540000000     0.498510000000     0.285940000000    -0.398055   
O199     O      0.501690000000     0.447520000000     0.286180000000    -0.399153   
O200     O      0.510040000000     0.040820000000     0.284490000000    -0.402042   
O201     O      0.975490000000     0.195410000000     0.258230000000    -0.399984   
O202     O      0.971380000000     0.289050000000     0.262440000000    -0.397662   
O203     O      0.965570000000     0.243560000000     0.212840000000    -0.394579   
O204     O      0.981260000000     0.239400000000     0.306700000000    -0.399531   
O205     O      0.532460000000     0.244360000000     0.297980000000    -0.394554   
O206     O      0.516850000000     0.247300000000     0.203960000000    -0.401466   
O207     O      0.522240000000     0.291900000000     0.251440000000    -0.399851   
O208     O      0.526510000000     0.198120000000     0.248040000000    -0.395201   
O209     O      0.801110000000     0.478440000000     0.249850000000    -0.394937   
O210     O      0.707070000000     0.481250000000     0.261770000000    -0.397196   
O211     O      0.747880000000     0.480450000000     0.208460000000    -0.398121   
O212     O      0.758430000000     0.478550000000     0.302950000000    -0.395542   
O213     O      0.757680000000     0.030270000000     0.304380000000    -0.394916   
O214     O      0.755420000000     0.031580000000     0.208590000000    -0.394383   
O215     O      0.708910000000     0.032810000000     0.257060000000    -0.398764   
O216     O      0.802840000000     0.029740000000     0.255950000000    -0.402961   
O217     O      0.768670000000     0.005870000000     0.057230000000    -0.39752    
O218     O      0.787020000000     0.996810000000     0.463920000000    -0.391514   
O219     O      0.780580000000     0.047070000000     0.507250000000    -0.398864   
O220     O      0.774540000000     0.453390000000     0.014820000000    -0.393121   
O221     O      0.723570000000     0.455680000000     0.004560000000    -0.400019   
O222     O      0.730210000000     0.048630000000     0.494000000000    -0.39443    
O223     O      0.735860000000     0.495340000000     0.453950000000    -0.400454   
O224     O      0.717590000000     0.507230000000     0.046700000000    -0.396858   
O225     O      0.547510000000     0.269740000000     0.016590000000    -0.393337   
O226     O      0.955500000000     0.272360000000     0.991950000000    -0.389576   
O227     O      0.990140000000     0.275120000000     0.050100000000    -0.394559   
O228     O      0.514180000000     0.266570000000     0.457870000000    -0.39345    
O229     O      0.506890000000     0.215570000000     0.461510000000    -0.400664   
O230     O      0.989020000000     0.223610000000     0.054470000000    -0.400271   
O231     O      0.952210000000     0.221450000000     0.500280000000    -0.399951   
O232     O      0.545220000000     0.218130000000     0.516570000000    -0.39705    
O233     O      0.698410000000     0.248190000000     0.484200000000    -0.397236   
O234     O      0.791740000000     0.252110000000     0.468080000000    -0.393686   
O235     O      0.745320000000     0.203330000000     0.475840000000    -0.396034   
O236     O      0.743550000000     0.297370000000     0.477120000000    -0.396926   
O237     O      0.757940000000     0.296960000000     0.027540000000    -0.395782   
O238     O      0.751470000000     0.203250000000     0.027980000000    -0.396528   
O239     O      0.800430000000     0.246360000000     0.019560000000    -0.397457   
O240     O      0.707100000000     0.253260000000     0.035790000000    -0.390296   
O241     O      0.007290000000     0.040290000000     0.732000000000    -0.394469   
O242     O      0.005990000000     0.446230000000     0.733830000000    -0.398038   
O243     O      0.958720000000     0.492810000000     0.733690000000    -0.398049   
O244     O      0.552780000000     0.993290000000     0.731550000000    -0.402841   
O245     O      0.553820000000     0.989750000000     0.783910000000    -0.396132   
O246     O      0.959540000000     0.498510000000     0.785940000000    -0.398036   
O247     O      0.501690000000     0.447520000000     0.786180000000    -0.39913    
O248     O      0.510040000000     0.040820000000     0.784490000000    -0.402019   
O249     O      0.975490000000     0.195410000000     0.758230000000    -0.399999   
O250     O      0.971380000000     0.289050000000     0.762440000000    -0.397658   
O251     O      0.965570000000     0.243560000000     0.712850000000    -0.394547   
O252     O      0.981260000000     0.239400000000     0.806700000000    -0.399588   
O253     O      0.532460000000     0.244360000000     0.797990000000    -0.394557   
O254     O      0.516850000000     0.247300000000     0.703960000000    -0.401365   
O255     O      0.522240000000     0.291900000000     0.751430000000    -0.399807   
O256     O      0.526510000000     0.198120000000     0.748040000000    -0.395187   
O257     O      0.801110000000     0.478440000000     0.749850000000    -0.394945   
O258     O      0.707070000000     0.481250000000     0.761770000000    -0.39721    
O259     O      0.747880000000     0.480450000000     0.708460000000    -0.398141   
O260     O      0.758430000000     0.478550000000     0.802940000000    -0.395509   
O261     O      0.757680000000     0.030270000000     0.804390000000    -0.394775   
O262     O      0.755420000000     0.031580000000     0.708590000000    -0.394362   
O263     O      0.708910000000     0.032810000000     0.757060000000    -0.398749   
O264     O      0.802840000000     0.029740000000     0.755950000000    -0.402944   
O265     O      0.768670000000     0.005870000000     0.557230000000    -0.397646   
O266     O      0.787020000000     0.996810000000     0.963920000000    -0.390583   
O267     O      0.780580000000     0.047070000000     0.007250000000    -0.400026   
O268     O      0.774540000000     0.453390000000     0.514820000000    -0.392978   
O269     O      0.723570000000     0.455680000000     0.504560000000    -0.398738   
O270     O      0.730210000000     0.048630000000     0.994000000000    -0.394824   
O271     O      0.735860000000     0.495340000000     0.953950000000    -0.400636   
O272     O      0.717590000000     0.507230000000     0.546700000000    -0.395899   
O273     O      0.547510000000     0.269740000000     0.516580000000    -0.393371   
O274     O      0.955500000000     0.272360000000     0.491950000000    -0.390246   
O275     O      0.990140000000     0.275120000000     0.550100000000    -0.394679   
O276     O      0.514180000000     0.266570000000     0.957870000000    -0.392562   
O277     O      0.506890000000     0.215570000000     0.961510000000    -0.399812   
O278     O      0.989020000000     0.223610000000     0.554470000000    -0.400392   
O279     O      0.952210000000     0.221450000000     0.000280000000    -0.401126   
O280     O      0.545220000000     0.218130000000     0.016570000000    -0.397175   
O281     O      0.698410000000     0.248190000000     0.984200000000    -0.396004   
O282     O      0.791740000000     0.252110000000     0.968080000000    -0.393987   
O283     O      0.745320000000     0.203330000000     0.975840000000    -0.394938   
O284     O      0.743550000000     0.297370000000     0.977110000000    -0.395617   
O285     O      0.757940000000     0.296960000000     0.527540000000    -0.396135   
O286     O      0.751470000000     0.203250000000     0.527980000000    -0.396831   
O287     O      0.800430000000     0.246360000000     0.519560000000    -0.396301   
O288     O      0.707100000000     0.253260000000     0.535790000000    -0.390634   
O289     O      0.007290000000     0.540290000000     0.232000000000    -0.392115   
O290     O      0.005990000000     0.946230000000     0.233830000000    -0.398401   
O291     O      0.958720000000     0.992810000000     0.233690000000    -0.397663   
O292     O      0.552780000000     0.493290000000     0.231550000000    -0.403634   
O293     O      0.553820000000     0.489750000000     0.283910000000    -0.396661   
O294     O      0.959540000000     0.998510000000     0.285940000000    -0.397168   
O295     O      0.501690000000     0.947520000000     0.286180000000    -0.399532   
O296     O      0.510040000000     0.540820000000     0.284490000000    -0.399642   
O297     O      0.975490000000     0.695410000000     0.258230000000    -0.399974   
O298     O      0.971380000000     0.789050000000     0.262440000000    -0.397661   
O299     O      0.965570000000     0.743560000000     0.212840000000    -0.394582   
O300     O      0.981260000000     0.739400000000     0.306700000000    -0.399527   
O301     O      0.532460000000     0.744360000000     0.297980000000    -0.394555   
O302     O      0.516850000000     0.747300000000     0.203960000000    -0.401464   
O303     O      0.522240000000     0.791900000000     0.251440000000    -0.39985    
O304     O      0.526510000000     0.698120000000     0.248040000000    -0.395199   
O305     O      0.801110000000     0.978440000000     0.249850000000    -0.391998   
O306     O      0.707070000000     0.981250000000     0.261770000000    -0.394314   
O307     O      0.747880000000     0.980450000000     0.208460000000    -0.395179   
O308     O      0.758430000000     0.978550000000     0.302950000000    -0.392762   
O309     O      0.757680000000     0.530270000000     0.304380000000    -0.395739   
O310     O      0.755420000000     0.531580000000     0.208590000000    -0.39528    
O311     O      0.708910000000     0.532810000000     0.257060000000    -0.399541   
O312     O      0.802840000000     0.529740000000     0.255950000000    -0.40386    
O313     O      0.768670000000     0.505870000000     0.057230000000    -0.397461   
O314     O      0.787020000000     0.496810000000     0.463920000000    -0.394535   
O315     O      0.780580000000     0.547070000000     0.507250000000    -0.39916    
O316     O      0.774540000000     0.953380000000     0.014820000000    -0.390804   
O317     O      0.723570000000     0.955680000000     0.004560000000    -0.397781   
O318     O      0.730210000000     0.548630000000     0.494000000000    -0.394746   
O319     O      0.735860000000     0.995340000000     0.453950000000    -0.397593   
O320     O      0.717590000000     0.007230000000     0.046700000000    -0.397151   
O321     O      0.547510000000     0.769740000000     0.016590000000    -0.393297   
O322     O      0.955500000000     0.772370000000     0.991950000000    -0.389375   
O323     O      0.990140000000     0.775120000000     0.050100000000    -0.394501   
O324     O      0.514180000000     0.766570000000     0.457870000000    -0.393417   
O325     O      0.506890000000     0.715570000000     0.461510000000    -0.400616   
O326     O      0.989020000000     0.723610000000     0.054470000000    -0.400232   
O327     O      0.952210000000     0.721450000000     0.500280000000    -0.399858   
O328     O      0.545220000000     0.718130000000     0.516570000000    -0.397001   
O329     O      0.698410000000     0.748190000000     0.484200000000    -0.397245   
O330     O      0.791740000000     0.752110000000     0.468080000000    -0.393691   
O331     O      0.745320000000     0.703330000000     0.475840000000    -0.396039   
O332     O      0.743550000000     0.797370000000     0.477120000000    -0.396923   
O333     O      0.757940000000     0.796960000000     0.027540000000    -0.395768   
O334     O      0.751470000000     0.703250000000     0.027980000000    -0.396531   
O335     O      0.800430000000     0.746360000000     0.019560000000    -0.397454   
O336     O      0.707100000000     0.753260000000     0.035790000000    -0.390283   
O337     O      0.007290000000     0.540290000000     0.732000000000    -0.392104   
O338     O      0.005990000000     0.946230000000     0.733830000000    -0.398389   
O339     O      0.958720000000     0.992810000000     0.733690000000    -0.397653   
O340     O      0.552780000000     0.493290000000     0.731550000000    -0.403718   
O341     O      0.553820000000     0.489750000000     0.783910000000    -0.396545   
O342     O      0.959540000000     0.998510000000     0.785940000000    -0.397149   
O343     O      0.501690000000     0.947520000000     0.786180000000    -0.39951    
O344     O      0.510040000000     0.540820000000     0.784490000000    -0.399617   
O345     O      0.975490000000     0.695410000000     0.758230000000    -0.399989   
O346     O      0.971380000000     0.789050000000     0.762440000000    -0.397656   
O347     O      0.965570000000     0.743560000000     0.712850000000    -0.39455    
O348     O      0.981260000000     0.739400000000     0.806700000000    -0.399584   
O349     O      0.532460000000     0.744360000000     0.797990000000    -0.394558   
O350     O      0.516850000000     0.747300000000     0.703960000000    -0.401364   
O351     O      0.522240000000     0.791900000000     0.751430000000    -0.399807   
O352     O      0.526510000000     0.698120000000     0.748040000000    -0.395185   
O353     O      0.801110000000     0.978440000000     0.749850000000    -0.392003   
O354     O      0.707070000000     0.981250000000     0.761770000000    -0.394325   
O355     O      0.747880000000     0.980450000000     0.708460000000    -0.395194   
O356     O      0.758430000000     0.978550000000     0.802940000000    -0.392731   
O357     O      0.757680000000     0.530270000000     0.804390000000    -0.395598   
O358     O      0.755420000000     0.531580000000     0.708590000000    -0.395261   
O359     O      0.708910000000     0.532810000000     0.757060000000    -0.399528   
O360     O      0.802840000000     0.529740000000     0.755950000000    -0.403843   
O361     O      0.768670000000     0.505870000000     0.557230000000    -0.397587   
O362     O      0.787020000000     0.496810000000     0.963920000000    -0.393593   
O363     O      0.780580000000     0.547070000000     0.007250000000    -0.400325   
O364     O      0.774540000000     0.953380000000     0.514820000000    -0.390648   
O365     O      0.723570000000     0.955680000000     0.504560000000    -0.396492   
O366     O      0.730210000000     0.548630000000     0.994000000000    -0.39514    
O367     O      0.735860000000     0.995340000000     0.953950000000    -0.397781   
O368     O      0.717590000000     0.007230000000     0.546700000000    -0.396199   
O369     O      0.547510000000     0.769740000000     0.516580000000    -0.393331   
O370     O      0.955500000000     0.772370000000     0.491950000000    -0.390047   
O371     O      0.990140000000     0.775120000000     0.550100000000    -0.394621   
O372     O      0.514180000000     0.766570000000     0.957870000000    -0.392527   
O373     O      0.506890000000     0.715570000000     0.961510000000    -0.399761   
O374     O      0.989020000000     0.723610000000     0.554470000000    -0.400354   
O375     O      0.952210000000     0.721450000000     0.000280000000    -0.401037   
O376     O      0.545220000000     0.718130000000     0.016570000000    -0.397127   
O377     O      0.698410000000     0.748190000000     0.984200000000    -0.39601    
O378     O      0.791740000000     0.752110000000     0.968080000000    -0.393993   
O379     O      0.745320000000     0.703330000000     0.975840000000    -0.394939   
O380     O      0.743550000000     0.797370000000     0.977110000000    -0.395611   
O381     O      0.757940000000     0.796960000000     0.527540000000    -0.396123   
O382     O      0.751470000000     0.703250000000     0.527980000000    -0.396834   
O383     O      0.800430000000     0.746360000000     0.519560000000    -0.396294   
O384     O      0.707100000000     0.753260000000     0.535790000000    -0.390622   
S1       S      0.339020000000     0.300890000000     0.452610000000    -0.0399797  
S2       S      0.161970000000     0.187410000000     0.496610000000    -0.0394513  
S3       S      0.207360000000     0.412080000000     0.457950000000    -0.0382615  
S4       S      0.224530000000     0.088630000000     0.440050000000    -0.0372774  
S5       S      0.211290000000     0.458700000000     0.346020000000    -0.0312128  
S6       S      0.199070000000     0.459560000000     0.095190000000    -0.040799   
S7       S      0.991190000000     0.179540000000     0.345330000000    -0.0415485  
S8       S      0.450340000000     0.193680000000     0.166020000000    -0.0363141  
S9       S      0.164020000000     0.034150000000     0.202390000000    -0.0428699  
S10      S      0.417000000000     0.051790000000     0.292970000000    -0.0447065  
S11      S      0.447950000000     0.406310000000     0.297170000000    -0.0404579  
S12      S      0.056350000000     0.082910000000     0.211470000000    -0.0358363  
S13      S      0.339020000000     0.300890000000     0.952610000000    -0.0395067  
S14      S      0.161970000000     0.187410000000     0.996610000000    -0.0370986  
S15      S      0.207360000000     0.412080000000     0.957940000000    -0.0381363  
S16      S      0.224530000000     0.088630000000     0.940050000000    -0.0371179  
S17      S      0.211290000000     0.458700000000     0.846020000000    -0.0311932  
S18      S      0.199070000000     0.459560000000     0.595190000000    -0.0407098  
S19      S      0.991190000000     0.179540000000     0.845330000000    -0.0414744  
S20      S      0.450340000000     0.193680000000     0.666020000000    -0.0362854  
S21      S      0.164020000000     0.034150000000     0.702390000000    -0.0428363  
S22      S      0.417000000000     0.051790000000     0.792970000000    -0.0446937  
S23      S      0.447950000000     0.406310000000     0.797170000000    -0.0404153  
S24      S      0.056350000000     0.082910000000     0.711470000000    -0.0357693  
S25      S      0.339020000000     0.800890000000     0.452610000000    -0.0398622  
S26      S      0.161970000000     0.687410000000     0.496610000000    -0.0393718  
S27      S      0.207360000000     0.912080000000     0.457950000000    -0.0379943  
S28      S      0.224530000000     0.588630000000     0.440050000000    -0.0368462  
S29      S      0.211290000000     0.958700000000     0.346020000000    -0.0313124  
S30      S      0.199070000000     0.959560000000     0.095190000000    -0.0403851  
S31      S      0.991190000000     0.679540000000     0.345330000000    -0.0413935  
S32      S      0.450340000000     0.693680000000     0.166020000000    -0.0361952  
S33      S      0.164020000000     0.534150000000     0.202390000000    -0.0412896  
S34      S      0.417000000000     0.551790000000     0.292970000000    -0.04402    
S35      S      0.447950000000     0.906310000000     0.297170000000    -0.0402285  
S36      S      0.056350000000     0.582900000000     0.211470000000    -0.0351154  
S37      S      0.339020000000     0.800890000000     0.952610000000    -0.0393894  
S38      S      0.161970000000     0.687410000000     0.996610000000    -0.037014   
S39      S      0.207360000000     0.912080000000     0.957940000000    -0.0378697  
S40      S      0.224530000000     0.588630000000     0.940050000000    -0.036687   
S41      S      0.211290000000     0.958700000000     0.846020000000    -0.0312919  
S42      S      0.199070000000     0.959560000000     0.595190000000    -0.0402944  
S43      S      0.991190000000     0.679540000000     0.845330000000    -0.0413193  
S44      S      0.450340000000     0.693680000000     0.666020000000    -0.036166   
S45      S      0.164020000000     0.534150000000     0.702390000000    -0.0412526  
S46      S      0.417000000000     0.551790000000     0.792970000000    -0.0440069  
S47      S      0.447950000000     0.906310000000     0.797170000000    -0.040186   
S48      S      0.056350000000     0.582900000000     0.711470000000    -0.0350466  
S49      S      0.839020000000     0.300890000000     0.452610000000    -0.0399164  
S50      S      0.661970000000     0.187410000000     0.496610000000    -0.0394103  
S51      S      0.707360000000     0.412080000000     0.457950000000    -0.038239   
S52      S      0.724540000000     0.088630000000     0.440050000000    -0.0372688  
S53      S      0.711290000000     0.458700000000     0.346020000000    -0.0312066  
S54      S      0.699070000000     0.459560000000     0.095190000000    -0.0407802  
S55      S      0.491190000000     0.179540000000     0.345330000000    -0.0421992  
S56      S      0.950340000000     0.193680000000     0.166020000000    -0.0362222  
S57      S      0.664020000000     0.034150000000     0.202390000000    -0.0428494  
S58      S      0.917000000000     0.051790000000     0.292970000000    -0.0445254  
S59      S      0.947940000000     0.406310000000     0.297170000000    -0.0402366  
S60      S      0.556350000000     0.082910000000     0.211470000000    -0.0356775  
S61      S      0.839020000000     0.300890000000     0.952610000000    -0.0394452  
S62      S      0.661970000000     0.187410000000     0.996610000000    -0.0370585  
S63      S      0.707360000000     0.412080000000     0.957940000000    -0.038114   
S64      S      0.724540000000     0.088630000000     0.940050000000    -0.0371093  
S65      S      0.711290000000     0.458700000000     0.846020000000    -0.031187   
S66      S      0.699070000000     0.459560000000     0.595190000000    -0.040691   
S67      S      0.491190000000     0.179540000000     0.845330000000    -0.0421216  
S68      S      0.950340000000     0.193680000000     0.666020000000    -0.0361939  
S69      S      0.664020000000     0.034150000000     0.702390000000    -0.0428157  
S70      S      0.917000000000     0.051790000000     0.792970000000    -0.0445134  
S71      S      0.947940000000     0.406310000000     0.797170000000    -0.040195   
S72      S      0.556350000000     0.082910000000     0.711470000000    -0.0356104  
S73      S      0.839020000000     0.800890000000     0.452610000000    -0.0397985  
S74      S      0.661970000000     0.687410000000     0.496610000000    -0.0393299  
S75      S      0.707360000000     0.912080000000     0.457950000000    -0.037971   
S76      S      0.724540000000     0.588630000000     0.440050000000    -0.0368358  
S77      S      0.711290000000     0.958700000000     0.346020000000    -0.0313065  
S78      S      0.699070000000     0.959560000000     0.095190000000    -0.0403652  
S79      S      0.491190000000     0.679540000000     0.345330000000    -0.0420501  
S80      S      0.950340000000     0.693680000000     0.166020000000    -0.0361023  
S81      S      0.664020000000     0.534150000000     0.202390000000    -0.0412627  
S82      S      0.917000000000     0.551790000000     0.292970000000    -0.0438362  
S83      S      0.947940000000     0.906310000000     0.297170000000    -0.0400052  
S84      S      0.556350000000     0.582900000000     0.211470000000    -0.0349511  
S85      S      0.839020000000     0.800890000000     0.952610000000    -0.0393274  
S86      S      0.661970000000     0.687410000000     0.996610000000    -0.036973   
S87      S      0.707360000000     0.912080000000     0.957940000000    -0.0378466  
S88      S      0.724540000000     0.588630000000     0.940050000000    -0.0366767  
S89      S      0.711290000000     0.958700000000     0.846020000000    -0.031286   
S90      S      0.699070000000     0.959560000000     0.595190000000    -0.0402744  
S91      S      0.491190000000     0.679540000000     0.845330000000    -0.0419725  
S92      S      0.950340000000     0.693680000000     0.666020000000    -0.0360735  
S93      S      0.664020000000     0.534150000000     0.702390000000    -0.0412257  
S94      S      0.917000000000     0.551790000000     0.792970000000    -0.0438239  
S95      S      0.947940000000     0.906310000000     0.797170000000    -0.0399636  
S96      S      0.556350000000     0.582900000000     0.711470000000    -0.0348822  


