data_structure

_audit_creation_method RASPA-1.0
_audit_creation_date 2023-5-22
_audit_author_name 'Poobodin Mano'

_cell_length_a    40.4838
_cell_length_b    42.1717
_cell_length_c    42.4678
_cell_angle_alpha 89.9998
_cell_angle_beta  89.999
_cell_angle_gamma 90.0048
_cell_volume      72504

_symmetry_cell_setting          triclinic
_symmetry_space_group_name_Hall 'P 1'
_symmetry_space_group_name_H-M  'P 1'
_symmetry_Int_Tables_number     1

_symmetry_equiv_pos_as_xyz 'x,y,z'

loop_
_atom_site_label
_atom_site_type_symbol
_atom_site_fract_x
_atom_site_fract_y
_atom_site_fract_z
_atom_site_charge
C1       C      0.971920000000     0.269570000000     0.055670000000     0.402098   
C2       C      0.971960000000     0.250270000000     0.431920000000     0.403023   
C3       C      0.471790000000     0.323030000000     0.484140000000     0.400748   
C4       C      0.972140000000     0.197440000000     0.002650000000     0.399487   
C5       C      0.971800000000     0.255500000000     0.181820000000     0.40204    
C6       C      0.971880000000     0.265590000000     0.306650000000     0.402666   
C7       C      0.971270000000     0.197480000000     0.249500000000     0.399625   
C8       C      0.972370000000     0.323510000000     0.239950000000     0.40061    
C9       C      0.971530000000     0.450560000000     0.000900000000     0.477585   
C10      C      0.472130000000     0.070000000000     0.518120000000     0.47502    
C11      C      0.472180000000     0.019910000000     0.448780000000     0.463925   
C12      C      0.971250000000     0.504070000000     0.068410000000     0.457043   
C13      C      0.972550000000     0.448130000000     0.264850000000     0.474958   
C14      C      0.470880000000     0.067590000000     0.249390000000     0.476449   
C15      C      0.468760000000     0.499210000000     0.198870000000     0.459219   
C16      C      0.974710000000     0.514070000000     0.318530000000     0.463119   
C17      C      0.215330000000     0.011670000000     0.076930000000     0.398853   
C18      C      0.228000000000     0.008510000000     0.452620000000     0.39769    
C19      C      0.287420000000     0.010990000000     0.518960000000     0.392919   
C20      C      0.156140000000     0.009710000000     0.010430000000     0.394084   
C21      C      0.215620000000     0.507470000000     0.326580000000     0.404036   
C22      C      0.228390000000     0.510670000000     0.202280000000     0.40487    
C23      C      0.287600000000     0.508370000000     0.268290000000     0.399961   
C24      C      0.156310000000     0.509280000000     0.259560000000     0.399604   
C25      C      0.208060000000     0.036620000000     0.376620000000    -0.0114571  
C26      C      0.209630000000     0.477110000000     0.376380000000    -0.0116484  
C27      C      0.234370000000     0.037260000000     0.402210000000    -0.0114736  
C28      C      0.234930000000     0.477740000000     0.403190000000    -0.011652   
C29      C      0.209270000000     0.042000000000     0.126690000000    -0.0119273  
C30      C      0.207930000000     0.482490000000     0.126930000000    -0.0108659  
C31      C      0.235220000000     0.041460000000     0.152890000000    -0.0119114  
C32      C      0.234850000000     0.481940000000     0.151910000000    -0.0109132  
C33      C      0.104240000000     0.539480000000     0.259850000000    -0.00372354 
C34      C      0.105290000000     0.480630000000     0.245910000000    -0.00552407 
C35      C      0.069210000000     0.034010000000     0.272110000000    -0.0235231  
C36      C      0.069350000000     0.979020000000     0.257100000000    -0.0182779  
C37      C      0.374450000000     0.538170000000     0.263680000000    -0.0183446  
C38      C      0.372580000000     0.483350000000     0.247740000000    -0.0186437  
C39      C      0.339980000000     0.036470000000     0.278540000000    -0.00739088 
C40      C      0.339230000000     0.977820000000     0.263650000000    -0.00267975 
C41      C      0.069110000000     0.039860000000     0.009440000000    -0.0191203  
C42      C      0.069300000000     0.485070000000     0.525260000000    -0.0196123  
C43      C      0.104830000000     0.038240000000     0.997730000000    -0.00766552 
C44      C      0.104160000000     0.479460000000     0.512630000000    -0.00505708 
C45      C      0.339350000000     0.481050000000     0.519420000000    -0.00235764 
C46      C      0.338030000000     0.040790000000     0.507970000000    -0.00513546 
C47      C      0.375800000000     0.485640000000     0.027320000000    -0.0262973  
C48      C      0.375310000000     0.040830000000     0.014190000000    -0.0242011  
C49      C      0.943140000000     0.511480000000     0.368380000000    -0.0101671  
C50      C      0.005480000000     0.012420000000     0.369090000000    -0.0165873  
C51      C      0.442580000000     0.530210000000     0.398500000000    -0.00986067 
C52      C      0.504250000000     0.030640000000     0.399820000000    -0.00859829 
C53      C      0.499410000000     0.486930000000     0.149620000000    -0.0101255  
C54      C      0.437820000000     0.990180000000     0.148940000000    -0.0042989  
C55      C      0.001360000000     0.505130000000     0.119120000000    -0.0108074  
C56      C      0.439130000000     0.009110000000     0.118040000000    -0.0153327  
C57      C      0.003570000000     0.397330000000     0.267210000000    -0.00753509 
C58      C      0.441620000000     0.397110000000     0.265600000000    -0.00723667 
C59      C      0.003690000000     0.374220000000     0.239350000000    -0.0137205  
C60      C      0.441700000000     0.374440000000     0.237470000000    -0.0131625  
C61      C      0.502000000000     0.147500000000     0.258990000000    -0.0133695  
C62      C      0.439880000000     0.147780000000     0.258760000000    -0.0136681  
C63      C      0.001750000000     0.117020000000     0.237310000000    -0.00744634 
C64      C      0.939830000000     0.117070000000     0.237470000000    -0.00711602 
C65      C      0.002970000000     0.269480000000     0.356840000000    -0.0118722  
C66      C      0.440890000000     0.270850000000     0.356510000000    -0.0116571  
C67      C      0.002890000000     0.243490000000     0.381930000000    -0.0115965  
C68      C      0.440980000000     0.244880000000     0.381630000000    -0.0114382  
C69      C      0.002840000000     0.251300000000     0.131600000000    -0.0119282  
C70      C      0.440810000000     0.250500000000     0.131270000000    -0.011667   
C71      C      0.002840000000     0.276470000000     0.105680000000    -0.0117735  
C72      C      0.440980000000     0.276020000000     0.105680000000    -0.0115921  
C73      C      0.002500000000     0.372730000000     0.475700000000    -0.0131464  
C74      C      0.440910000000     0.373250000000     0.475700000000    -0.012936   
C75      C      0.002640000000     0.400110000000     0.999290000000    -0.00815792 
C76      C      0.440220000000     0.400150000000     0.999860000000    -0.00793572 
C77      C      0.441040000000     0.147560000000     0.504190000000    -0.0138073  
C78      C      0.003540000000     0.147110000000     0.505160000000    -0.0142159  
C79      C      0.441340000000     0.120020000000     0.027560000000    -0.00649423 
C80      C      0.002940000000     0.119750000000     0.028810000000    -0.0071901  
C81      C      0.471940000000     0.269680000000     0.055600000000     0.401841   
C82      C      0.471950000000     0.251250000000     0.431650000000     0.40249    
C83      C      0.971760000000     0.322450000000     0.484070000000     0.400253   
C84      C      0.472150000000     0.197980000000     0.002260000000     0.399748   
C85      C      0.471820000000     0.254680000000     0.181540000000     0.401786   
C86      C      0.471870000000     0.266450000000     0.306280000000     0.402312   
C87      C      0.471290000000     0.197580000000     0.250240000000     0.39984    
C88      C      0.472360000000     0.323450000000     0.238790000000     0.400656   
C89      C      0.471530000000     0.450590000000     0.001860000000     0.478927   
C90      C      0.972150000000     0.069780000000     0.518860000000     0.474475   
C91      C      0.972190000000     0.020470000000     0.448860000000     0.46308    
C92      C      0.471260000000     0.505080000000     0.068460000000     0.457806   
C93      C      0.472500000000     0.447960000000     0.264080000000     0.474959   
C94      C      0.970830000000     0.067530000000     0.248580000000     0.476646   
C95      C      0.968800000000     0.498720000000     0.198990000000     0.458478   
C96      C      0.474740000000     0.513280000000     0.318490000000     0.463148   
C97      C      0.715390000000     0.011630000000     0.076880000000     0.398886   
C98      C      0.727990000000     0.008490000000     0.452570000000     0.397768   
C99      C      0.787450000000     0.010890000000     0.518880000000     0.393149   
C100     C      0.656170000000     0.009750000000     0.010410000000     0.393992   
C101     C      0.715610000000     0.507450000000     0.326530000000     0.403951   
C102     C      0.728460000000     0.510630000000     0.202240000000     0.404925   
C103     C      0.787630000000     0.508390000000     0.268280000000     0.399763   
C104     C      0.656340000000     0.509200000000     0.259480000000     0.39962    
C105     C      0.708030000000     0.036600000000     0.376570000000    -0.011489   
C106     C      0.709580000000     0.477100000000     0.376330000000    -0.0115408  
C107     C      0.734350000000     0.037240000000     0.402150000000    -0.0115297  
C108     C      0.734880000000     0.477710000000     0.403130000000    -0.0117139  
C109     C      0.709340000000     0.041960000000     0.126650000000    -0.0119528  
C110     C      0.708020000000     0.482450000000     0.126890000000    -0.0108535  
C111     C      0.735290000000     0.041430000000     0.152850000000    -0.0119248  
C112     C      0.734940000000     0.481900000000     0.151870000000    -0.0109525  
C113     C      0.604250000000     0.539360000000     0.259870000000    -0.00374882 
C114     C      0.605330000000     0.480560000000     0.245720000000    -0.00560662 
C115     C      0.569240000000     0.033830000000     0.272130000000    -0.0235674  
C116     C      0.569380000000     0.978910000000     0.256870000000    -0.0182288  
C117     C      0.874450000000     0.538220000000     0.263560000000    -0.0182041  
C118     C      0.872640000000     0.483330000000     0.247870000000    -0.0187006  
C119     C      0.839980000000     0.036570000000     0.278430000000    -0.00750574 
C120     C      0.839280000000     0.977840000000     0.263790000000    -0.00275039 
C121     C      0.569140000000     0.039980000000     0.009280000000    -0.0191333  
C122     C      0.569320000000     0.485280000000     0.525390000000    -0.019696   
C123     C      0.604880000000     0.038290000000     0.997620000000    -0.00768883 
C124     C      0.604160000000     0.479580000000     0.512760000000    -0.00486645 
C125     C      0.839360000000     0.480910000000     0.519190000000    -0.00238099 
C126     C      0.838080000000     0.040700000000     0.508020000000    -0.00509728 
C127     C      0.875810000000     0.485420000000     0.027130000000    -0.0263815  
C128     C      0.875340000000     0.040700000000     0.014330000000    -0.0241226  
C129     C      0.443200000000     0.510300000000     0.368340000000    -0.0101328  
C130     C      0.505510000000     0.011400000000     0.369060000000    -0.0162496  
C131     C      0.942620000000     0.531230000000     0.398650000000    -0.00975408 
C132     C      0.004260000000     0.031510000000     0.399940000000    -0.00900059 
C133     C      0.999470000000     0.486100000000     0.149820000000    -0.00899376 
C134     C      0.937880000000     0.989190000000     0.149140000000    -0.00442061 
C135     C      0.501390000000     0.506420000000     0.119220000000    -0.00974508 
C136     C      0.939120000000     0.007660000000     0.117940000000    -0.0150479  
C137     C      0.503510000000     0.397130000000     0.265870000000    -0.00727954 
C138     C      0.941750000000     0.397240000000     0.267060000000    -0.00683345 
C139     C      0.503640000000     0.374180000000     0.237900000000    -0.0134696  
C140     C      0.941750000000     0.374560000000     0.238960000000    -0.0129923  
C141     C      0.001970000000     0.147260000000     0.257120000000    -0.0135364  
C142     C      0.939870000000     0.147570000000     0.257010000000    -0.0134029  
C143     C      0.501810000000     0.117280000000     0.239120000000    -0.00700193 
C144     C      0.439920000000     0.117330000000     0.239150000000    -0.00683995 
C145     C      0.502930000000     0.270840000000     0.356470000000    -0.0117187  
C146     C      0.940920000000     0.269520000000     0.356930000000    -0.0113917  
C147     C      0.502870000000     0.244890000000     0.381600000000    -0.0113266  
C148     C      0.941060000000     0.243440000000     0.381900000000    -0.0110304  
C149     C      0.502850000000     0.250300000000     0.131290000000    -0.0118289  
C150     C      0.940790000000     0.251470000000     0.131550000000    -0.0113494  
C151     C      0.502870000000     0.275850000000     0.105720000000    -0.0115494  
C152     C      0.941000000000     0.276660000000     0.105680000000    -0.0112073  
C153     C      0.502550000000     0.373380000000     0.476270000000    -0.0130082  
C154     C      0.940910000000     0.372630000000     0.475160000000    -0.0127074  
C155     C      0.502650000000     0.400060000000     0.000630000000    -0.00632317 
C156     C      0.940190000000     0.400230000000     0.998540000000    -0.00788983 
C157     C      0.941010000000     0.146970000000     0.504720000000    -0.0138351  
C158     C      0.503540000000     0.147710000000     0.504730000000    -0.0136485  
C159     C      0.941380000000     0.119790000000     0.028510000000    -0.00664135 
C160     C      0.502900000000     0.120010000000     0.027970000000    -0.00664007 
C161     C      0.971920000000     0.269570000000     0.555670000000     0.402163   
C162     C      0.971960000000     0.250270000000     0.931920000000     0.402979   
C163     C      0.471790000000     0.323030000000     0.984140000000     0.400455   
C164     C      0.972140000000     0.197440000000     0.502650000000     0.399493   
C165     C      0.971800000000     0.255500000000     0.681820000000     0.401882   
C166     C      0.971880000000     0.265590000000     0.806650000000     0.402659   
C167     C      0.971270000000     0.197480000000     0.749500000000     0.399618   
C168     C      0.972370000000     0.323510000000     0.739950000000     0.400603   
C169     C      0.971530000000     0.450560000000     0.500900000000     0.477454   
C170     C      0.472130000000     0.070000000000     0.018120000000     0.475104   
C171     C      0.472180000000     0.019910000000     0.948780000000     0.464009   
C172     C      0.971250000000     0.504070000000     0.568400000000     0.457064   
C173     C      0.972550000000     0.448130000000     0.764850000000     0.474961   
C174     C      0.470880000000     0.067590000000     0.749390000000     0.476451   
C175     C      0.468760000000     0.499210000000     0.698870000000     0.459212   
C176     C      0.974710000000     0.514070000000     0.818530000000     0.46311    
C177     C      0.215330000000     0.011670000000     0.576930000000     0.398834   
C178     C      0.228000000000     0.008510000000     0.952620000000     0.397996   
C179     C      0.287420000000     0.010990000000     0.018960000000     0.393014   
C180     C      0.156140000000     0.009710000000     0.510430000000     0.394036   
C181     C      0.215620000000     0.507470000000     0.826580000000     0.404031   
C182     C      0.228390000000     0.510670000000     0.702280000000     0.404632   
C183     C      0.287600000000     0.508370000000     0.768290000000     0.399961   
C184     C      0.156310000000     0.509280000000     0.759560000000     0.399603   
C185     C      0.208060000000     0.036620000000     0.876620000000    -0.0114668  
C186     C      0.209630000000     0.477120000000     0.876380000000    -0.0115909  
C187     C      0.234370000000     0.037260000000     0.902210000000    -0.0114597  
C188     C      0.234930000000     0.477740000000     0.903190000000    -0.011682   
C189     C      0.209270000000     0.042000000000     0.626690000000    -0.0119245  
C190     C      0.207930000000     0.482490000000     0.626930000000    -0.0108599  
C191     C      0.235220000000     0.041460000000     0.652890000000    -0.0119117  
C192     C      0.234850000000     0.481940000000     0.651910000000    -0.0109254  
C193     C      0.104240000000     0.539480000000     0.759850000000    -0.00373176 
C194     C      0.105290000000     0.480630000000     0.745910000000    -0.00552201 
C195     C      0.069210000000     0.034010000000     0.772110000000    -0.0235226  
C196     C      0.069350000000     0.979020000000     0.757100000000    -0.0182844  
C197     C      0.374450000000     0.538170000000     0.763680000000    -0.0183463  
C198     C      0.372580000000     0.483350000000     0.747740000000    -0.0186633  
C199     C      0.339980000000     0.036470000000     0.778540000000    -0.00738937 
C200     C      0.339230000000     0.977820000000     0.763650000000    -0.00272018 
C201     C      0.069110000000     0.039860000000     0.509440000000    -0.0200257  
C202     C      0.069300000000     0.485070000000     0.025260000000    -0.0197707  
C203     C      0.104830000000     0.038240000000     0.497730000000    -0.0066076  
C204     C      0.104160000000     0.479470000000     0.012620000000    -0.00445635 
C205     C      0.339350000000     0.481050000000     0.019420000000    -0.0019783  
C206     C      0.338030000000     0.040790000000     0.007970000000    -0.00479306 
C207     C      0.375800000000     0.485630000000     0.527320000000    -0.0262768  
C208     C      0.375310000000     0.040830000000     0.514190000000    -0.024488   
C209     C      0.943140000000     0.511480000000     0.868380000000    -0.0101211  
C210     C      0.005480000000     0.012420000000     0.869090000000    -0.0165506  
C211     C      0.442580000000     0.530210000000     0.898500000000    -0.00986245 
C212     C      0.504250000000     0.030640000000     0.899820000000    -0.00866352 
C213     C      0.499410000000     0.486930000000     0.649610000000    -0.010164   
C214     C      0.437820000000     0.990180000000     0.648940000000    -0.00432806 
C215     C      0.001360000000     0.505130000000     0.619120000000    -0.0109016  
C216     C      0.439140000000     0.009110000000     0.618040000000    -0.0152799  
C217     C      0.003570000000     0.397330000000     0.767210000000    -0.00753258 
C218     C      0.441620000000     0.397110000000     0.765600000000    -0.00719016 
C219     C      0.003690000000     0.374220000000     0.739350000000    -0.0137214  
C220     C      0.441700000000     0.374450000000     0.737470000000    -0.0132357  
C221     C      0.502000000000     0.147500000000     0.758990000000    -0.0133798  
C222     C      0.439880000000     0.147780000000     0.758760000000    -0.0136676  
C223     C      0.001750000000     0.117020000000     0.737310000000    -0.00744685 
C224     C      0.939830000000     0.117070000000     0.737470000000    -0.00712722 
C225     C      0.002970000000     0.269480000000     0.856840000000    -0.0118577  
C226     C      0.440890000000     0.270850000000     0.856510000000    -0.0117148  
C227     C      0.002890000000     0.243480000000     0.881930000000    -0.0116361  
C228     C      0.440980000000     0.244880000000     0.881630000000    -0.0114223  
C229     C      0.002840000000     0.251300000000     0.631600000000    -0.0119395  
C230     C      0.440810000000     0.250500000000     0.631270000000    -0.0116628  
C231     C      0.002840000000     0.276470000000     0.605680000000    -0.0117603  
C232     C      0.440980000000     0.276020000000     0.605680000000    -0.0116353  
C233     C      0.002500000000     0.372730000000     0.975700000000    -0.0130452  
C234     C      0.440910000000     0.373250000000     0.975700000000    -0.0128926  
C235     C      0.002640000000     0.400110000000     0.499290000000    -0.00776326 
C236     C      0.440220000000     0.400150000000     0.499860000000    -0.00757122 
C237     C      0.441040000000     0.147560000000     0.004190000000    -0.0133667  
C238     C      0.003540000000     0.147110000000     0.005160000000    -0.013772   
C239     C      0.441340000000     0.120020000000     0.527560000000    -0.00638932 
C240     C      0.002940000000     0.119750000000     0.528810000000    -0.00708082 
C241     C      0.471950000000     0.269680000000     0.555600000000     0.401905   
C242     C      0.471950000000     0.251250000000     0.931650000000     0.402438   
C243     C      0.971760000000     0.322450000000     0.984070000000     0.4002     
C244     C      0.472150000000     0.197980000000     0.502270000000     0.399745   
C245     C      0.471820000000     0.254680000000     0.681540000000     0.401788   
C246     C      0.471870000000     0.266450000000     0.806280000000     0.402313   
C247     C      0.471290000000     0.197580000000     0.750240000000     0.39984    
C248     C      0.472360000000     0.323450000000     0.738790000000     0.400654   
C249     C      0.471530000000     0.450590000000     0.501860000000     0.478264   
C250     C      0.972150000000     0.069780000000     0.018860000000     0.474523   
C251     C      0.972200000000     0.020470000000     0.948860000000     0.463353   
C252     C      0.471260000000     0.505080000000     0.568460000000     0.457757   
C253     C      0.472510000000     0.447960000000     0.764080000000     0.475031   
C254     C      0.970830000000     0.067530000000     0.748580000000     0.476647   
C255     C      0.968810000000     0.498720000000     0.698990000000     0.458487   
C256     C      0.474740000000     0.513280000000     0.818490000000     0.463143   
C257     C      0.715390000000     0.011630000000     0.576880000000     0.398866   
C258     C      0.727990000000     0.008490000000     0.952570000000     0.397842   
C259     C      0.787450000000     0.010890000000     0.018880000000     0.393241   
C260     C      0.656170000000     0.009750000000     0.510410000000     0.393942   
C261     C      0.715610000000     0.507450000000     0.826530000000     0.403947   
C262     C      0.728460000000     0.510630000000     0.702240000000     0.404689   
C263     C      0.787630000000     0.508390000000     0.768280000000     0.399686   
C264     C      0.656340000000     0.509200000000     0.759480000000     0.3997     
C265     C      0.708040000000     0.036600000000     0.876570000000    -0.0114561  
C266     C      0.709580000000     0.477100000000     0.876330000000    -0.0115466  
C267     C      0.734340000000     0.037240000000     0.902150000000    -0.0115104  
C268     C      0.734880000000     0.477710000000     0.903130000000    -0.0117253  
C269     C      0.709340000000     0.041960000000     0.626650000000    -0.0119381  
C270     C      0.708020000000     0.482450000000     0.626890000000    -0.0108047  
C271     C      0.735300000000     0.041430000000     0.652850000000    -0.0119616  
C272     C      0.734940000000     0.481900000000     0.651870000000    -0.0109874  
C273     C      0.604250000000     0.539360000000     0.759870000000    -0.00373355 
C274     C      0.605330000000     0.480560000000     0.745720000000    -0.00562712 
C275     C      0.569240000000     0.033830000000     0.772130000000    -0.0235668  
C276     C      0.569380000000     0.978910000000     0.756870000000    -0.0182277  
C277     C      0.874450000000     0.538220000000     0.763560000000    -0.0181903  
C278     C      0.872640000000     0.483330000000     0.747870000000    -0.0187001  
C279     C      0.839980000000     0.036570000000     0.778430000000    -0.00750643 
C280     C      0.839280000000     0.977840000000     0.763790000000    -0.00278232 
C281     C      0.569140000000     0.039980000000     0.509280000000    -0.0200541  
C282     C      0.569320000000     0.485280000000     0.025390000000    -0.0196979  
C283     C      0.604880000000     0.038290000000     0.497620000000    -0.00662768 
C284     C      0.604160000000     0.479580000000     0.012760000000    -0.00447928 
C285     C      0.839360000000     0.480910000000     0.019190000000    -0.00193881 
C286     C      0.838080000000     0.040700000000     0.008030000000    -0.00472552 
C287     C      0.875810000000     0.485420000000     0.527130000000    -0.0262487  
C288     C      0.875340000000     0.040700000000     0.514330000000    -0.0244081  
C289     C      0.443200000000     0.510300000000     0.868340000000    -0.0101288  
C290     C      0.505510000000     0.011400000000     0.869060000000    -0.0162411  
C291     C      0.942610000000     0.531230000000     0.898650000000    -0.009867   
C292     C      0.004260000000     0.031510000000     0.899940000000    -0.0090109  
C293     C      0.999470000000     0.486100000000     0.649820000000    -0.00896957 
C294     C      0.937880000000     0.989190000000     0.649140000000    -0.00438939 
C295     C      0.501380000000     0.506420000000     0.619220000000    -0.00969972 
C296     C      0.939120000000     0.007660000000     0.617940000000    -0.0151464  
C297     C      0.503510000000     0.397130000000     0.765870000000    -0.00728757 
C298     C      0.941750000000     0.397240000000     0.767060000000    -0.00682212 
C299     C      0.503640000000     0.374180000000     0.737900000000    -0.0134665  
C300     C      0.941750000000     0.374560000000     0.738960000000    -0.0130274  
C301     C      0.001970000000     0.147260000000     0.757120000000    -0.0135355  
C302     C      0.939870000000     0.147570000000     0.757010000000    -0.0133986  
C303     C      0.501810000000     0.117280000000     0.739120000000    -0.00699858 
C304     C      0.439920000000     0.117330000000     0.739150000000    -0.00683988 
C305     C      0.502930000000     0.270840000000     0.856470000000    -0.0116069  
C306     C      0.940920000000     0.269520000000     0.856930000000    -0.0113873  
C307     C      0.502880000000     0.244890000000     0.881600000000    -0.0114626  
C308     C      0.941060000000     0.243440000000     0.881900000000    -0.0110352  
C309     C      0.502850000000     0.250300000000     0.631290000000    -0.011821   
C310     C      0.940780000000     0.251470000000     0.631550000000    -0.0115136  
C311     C      0.502870000000     0.275840000000     0.605720000000    -0.0114663  
C312     C      0.941000000000     0.276660000000     0.605680000000    -0.0111355  
C313     C      0.502550000000     0.373370000000     0.976270000000    -0.0134986  
C314     C      0.940910000000     0.372630000000     0.975160000000    -0.0126004  
C315     C      0.502650000000     0.400060000000     0.500630000000    -0.00735694 
C316     C      0.940190000000     0.400230000000     0.498540000000    -0.00747138 
C317     C      0.941010000000     0.146980000000     0.004720000000    -0.0133623  
C318     C      0.503540000000     0.147710000000     0.004730000000    -0.0132379  
C319     C      0.941380000000     0.119790000000     0.528510000000    -0.00650413 
C320     C      0.502900000000     0.120010000000     0.527970000000    -0.00654295 
C321     C      0.971920000000     0.769580000000     0.055670000000     0.402081   
C322     C      0.971950000000     0.750270000000     0.431920000000     0.402765   
C323     C      0.471790000000     0.823030000000     0.484140000000     0.40064    
C324     C      0.972140000000     0.697430000000     0.002650000000     0.399601   
C325     C      0.971800000000     0.755500000000     0.181820000000     0.402021   
C326     C      0.971880000000     0.765600000000     0.306650000000     0.40265    
C327     C      0.971270000000     0.697480000000     0.249500000000     0.399614   
C328     C      0.972370000000     0.823510000000     0.239950000000     0.400607   
C329     C      0.971530000000     0.950560000000     0.000900000000     0.476986   
C330     C      0.472130000000     0.570000000000     0.518120000000     0.47555    
C331     C      0.472180000000     0.519910000000     0.448780000000     0.464795   
C332     C      0.971250000000     0.004070000000     0.068410000000     0.455664   
C333     C      0.972550000000     0.948130000000     0.264850000000     0.474141   
C334     C      0.470880000000     0.567590000000     0.249390000000     0.477026   
C335     C      0.468760000000     0.999210000000     0.198870000000     0.47092    
C336     C      0.974710000000     0.014070000000     0.318530000000     0.461915   
C337     C      0.215330000000     0.511670000000     0.076930000000     0.404852   
C338     C      0.228000000000     0.508510000000     0.452620000000     0.403886   
C339     C      0.287420000000     0.510990000000     0.518960000000     0.399108   
C340     C      0.156140000000     0.509710000000     0.010430000000     0.400054   
C341     C      0.215620000000     0.007470000000     0.326580000000     0.398299   
C342     C      0.228390000000     0.010670000000     0.202280000000     0.398611   
C343     C      0.287600000000     0.008370000000     0.268290000000     0.393985   
C344     C      0.156310000000     0.009280000000     0.259560000000     0.393696   
C345     C      0.208060000000     0.536620000000     0.376620000000    -0.0110224  
C346     C      0.209630000000     0.977120000000     0.376380000000    -0.00867406 
C347     C      0.234370000000     0.537260000000     0.402210000000    -0.0110662  
C348     C      0.234930000000     0.977740000000     0.403190000000    -0.00888693 
C349     C      0.209270000000     0.542000000000     0.126690000000    -0.0115006  
C350     C      0.207930000000     0.982490000000     0.126930000000    -0.00804828 
C351     C      0.235220000000     0.541460000000     0.152890000000    -0.0114666  
C352     C      0.234850000000     0.981940000000     0.151910000000    -0.00811985 
C353     C      0.104240000000     0.039480000000     0.259850000000    -0.00427686 
C354     C      0.105290000000     0.980630000000     0.245910000000    -0.00276519 
C355     C      0.069210000000     0.534020000000     0.272110000000    -0.0233239  
C356     C      0.069350000000     0.479020000000     0.257100000000    -0.0215097  
C357     C      0.374450000000     0.038170000000     0.263680000000    -0.0186431  
C358     C      0.372580000000     0.983350000000     0.247740000000    -0.0154445  
C359     C      0.339980000000     0.536470000000     0.278540000000    -0.00683313 
C360     C      0.339230000000     0.477820000000     0.263650000000    -0.00545333 
C361     C      0.069110000000     0.539860000000     0.009440000000    -0.0187928  
C362     C      0.069300000000     0.985070000000     0.525260000000    -0.0164864  
C363     C      0.104830000000     0.538240000000     0.997730000000    -0.00713519 
C364     C      0.104160000000     0.979470000000     0.512630000000    -0.00213605 
C365     C      0.339350000000     0.981050000000     0.519420000000     0.000340898
C366     C      0.338030000000     0.540790000000     0.507970000000    -0.00457012 
C367     C      0.375800000000     0.985630000000     0.027320000000    -0.0232377  
C368     C      0.375310000000     0.540830000000     0.014190000000    -0.0239024  
C369     C      0.943140000000     0.011480000000     0.368380000000    -0.0164031  
C370     C      0.005480000000     0.512420000000     0.369090000000    -0.0103048  
C371     C      0.442580000000     0.030210000000     0.398500000000    -0.00829846 
C372     C      0.504250000000     0.530630000000     0.399820000000    -0.0100304  
C373     C      0.499410000000     0.986930000000     0.149620000000    -0.00281301 
C374     C      0.437820000000     0.490180000000     0.148940000000    -0.00991686 
C375     C      0.001360000000     0.005130000000     0.119120000000    -0.0221628  
C376     C      0.439130000000     0.509110000000     0.118040000000    -0.0102015  
C377     C      0.003570000000     0.897340000000     0.267210000000    -0.00751701 
C378     C      0.441620000000     0.897110000000     0.265600000000    -0.00722062 
C379     C      0.003690000000     0.874220000000     0.239350000000    -0.0137333  
C380     C      0.441700000000     0.874450000000     0.237470000000    -0.013215   
C381     C      0.502000000000     0.647490000000     0.258990000000    -0.0134627  
C382     C      0.439880000000     0.647780000000     0.258760000000    -0.0136846  
C383     C      0.001750000000     0.617020000000     0.237310000000    -0.00743923 
C384     C      0.939830000000     0.617070000000     0.237470000000    -0.00710421 
C385     C      0.002970000000     0.769480000000     0.356840000000    -0.0118928  
C386     C      0.440890000000     0.770850000000     0.356510000000    -0.0116729  
C387     C      0.002890000000     0.743490000000     0.381930000000    -0.011592   
C388     C      0.440980000000     0.744880000000     0.381630000000    -0.0114419  
C389     C      0.002840000000     0.751300000000     0.131600000000    -0.0119389  
C390     C      0.440810000000     0.750500000000     0.131270000000    -0.0116367  
C391     C      0.002840000000     0.776470000000     0.105680000000    -0.0117814  
C392     C      0.440980000000     0.776020000000     0.105680000000    -0.0116131  
C393     C      0.002500000000     0.872730000000     0.475700000000    -0.0131351  
C394     C      0.440910000000     0.873250000000     0.475700000000    -0.0129608  
C395     C      0.002640000000     0.900110000000     0.999290000000    -0.00817957 
C396     C      0.440220000000     0.900150000000     0.999860000000    -0.00787256 
C397     C      0.441040000000     0.647560000000     0.504190000000    -0.0138183  
C398     C      0.003540000000     0.647110000000     0.505160000000    -0.0142167  
C399     C      0.441340000000     0.620020000000     0.027560000000    -0.0064793  
C400     C      0.002940000000     0.619750000000     0.028810000000    -0.00719475 
C401     C      0.471950000000     0.769680000000     0.055600000000     0.401842   
C402     C      0.471950000000     0.751250000000     0.431650000000     0.402474   
C403     C      0.971760000000     0.822450000000     0.484070000000     0.400232   
C404     C      0.472150000000     0.697980000000     0.002260000000     0.399883   
C405     C      0.471820000000     0.754680000000     0.181540000000     0.401775   
C406     C      0.471870000000     0.766450000000     0.306280000000     0.402524   
C407     C      0.471290000000     0.697580000000     0.250240000000     0.399894   
C408     C      0.472360000000     0.823450000000     0.238790000000     0.400653   
C409     C      0.471530000000     0.950590000000     0.001860000000     0.478041   
C410     C      0.972150000000     0.569780000000     0.518860000000     0.474995   
C411     C      0.972190000000     0.520470000000     0.448860000000     0.463954   
C412     C      0.471250000000     0.005080000000     0.068460000000     0.456428   
C413     C      0.472510000000     0.947960000000     0.264080000000     0.474214   
C414     C      0.970830000000     0.567530000000     0.248580000000     0.477217   
C415     C      0.968800000000     0.998720000000     0.198990000000     0.470173   
C416     C      0.474740000000     0.013280000000     0.318490000000     0.461944   
C417     C      0.715390000000     0.511630000000     0.076880000000     0.404893   
C418     C      0.727990000000     0.508490000000     0.452570000000     0.403709   
C419     C      0.787450000000     0.510890000000     0.518880000000     0.399098   
C420     C      0.656170000000     0.509750000000     0.010410000000     0.400053   
C421     C      0.715610000000     0.007450000000     0.326530000000     0.397987   
C422     C      0.728460000000     0.010630000000     0.202240000000     0.398902   
C423     C      0.787630000000     0.008390000000     0.268280000000     0.393721   
C424     C      0.656340000000     0.009200000000     0.259480000000     0.393712   
C425     C      0.708040000000     0.536600000000     0.376570000000    -0.0110385  
C426     C      0.709580000000     0.977100000000     0.376330000000    -0.00871985 
C427     C      0.734350000000     0.537240000000     0.402150000000    -0.0111388  
C428     C      0.734880000000     0.977710000000     0.403130000000    -0.00887889 
C429     C      0.709340000000     0.541960000000     0.126650000000    -0.0115015  
C430     C      0.708030000000     0.982450000000     0.126890000000    -0.00795043 
C431     C      0.735290000000     0.541430000000     0.152850000000    -0.0115549  
C432     C      0.734940000000     0.981900000000     0.151870000000    -0.00820158 
C433     C      0.604250000000     0.039360000000     0.259870000000    -0.0042989  
C434     C      0.605330000000     0.980560000000     0.245720000000    -0.00286544 
C435     C      0.569240000000     0.533830000000     0.272130000000    -0.0232958  
C436     C      0.569380000000     0.478910000000     0.256870000000    -0.0214833  
C437     C      0.874450000000     0.038220000000     0.263560000000    -0.0184873  
C438     C      0.872640000000     0.983330000000     0.247870000000    -0.0154883  
C439     C      0.839980000000     0.536570000000     0.278430000000    -0.00690498 
C440     C      0.839280000000     0.477840000000     0.263790000000    -0.00551019 
C441     C      0.569140000000     0.539980000000     0.009280000000    -0.0188236  
C442     C      0.569320000000     0.985280000000     0.525390000000    -0.0164229  
C443     C      0.604880000000     0.538290000000     0.997620000000    -0.00714617 
C444     C      0.604160000000     0.979580000000     0.512760000000    -0.00215604 
C445     C      0.839360000000     0.980910000000     0.519190000000     0.00038706 
C446     C      0.838080000000     0.540700000000     0.508020000000    -0.00452381 
C447     C      0.875810000000     0.985420000000     0.027130000000    -0.0232212  
C448     C      0.875340000000     0.540700000000     0.014330000000    -0.0237755  
C449     C      0.443200000000     0.010300000000     0.368340000000    -0.0164235  
C450     C      0.505510000000     0.511400000000     0.369060000000    -0.0100326  
C451     C      0.942610000000     0.031230000000     0.398650000000    -0.00830358 
C452     C      0.004260000000     0.531510000000     0.399940000000    -0.0105275  
C453     C      0.999470000000     0.986100000000     0.149820000000    -0.00167545 
C454     C      0.937880000000     0.489190000000     0.149140000000    -0.00996786 
C455     C      0.501380000000     0.006420000000     0.119220000000    -0.0209804  
C456     C      0.939120000000     0.507660000000     0.117940000000    -0.00998845 
C457     C      0.503510000000     0.897130000000     0.265870000000    -0.0072948  
C458     C      0.941750000000     0.897240000000     0.267060000000    -0.00686652 
C459     C      0.503640000000     0.874180000000     0.237900000000    -0.0134854  
C460     C      0.941750000000     0.874560000000     0.238960000000    -0.0130039  
C461     C      0.001970000000     0.647260000000     0.257120000000    -0.0135502  
C462     C      0.939870000000     0.647570000000     0.257010000000    -0.0134186  
C463     C      0.501810000000     0.617280000000     0.239120000000    -0.00696225 
C464     C      0.439920000000     0.617330000000     0.239150000000    -0.00682552 
C465     C      0.502930000000     0.770840000000     0.356470000000    -0.0117315  
C466     C      0.940920000000     0.769520000000     0.356930000000    -0.0114049  
C467     C      0.502870000000     0.744890000000     0.381600000000    -0.0113315  
C468     C      0.941060000000     0.743450000000     0.381900000000    -0.0110496  
C469     C      0.502840000000     0.750300000000     0.131290000000    -0.011691   
C470     C      0.940780000000     0.751470000000     0.131550000000    -0.0115107  
C471     C      0.502870000000     0.775840000000     0.105720000000    -0.0115993  
C472     C      0.941000000000     0.776660000000     0.105680000000    -0.0111592  
C473     C      0.502550000000     0.873380000000     0.476270000000    -0.0130398  
C474     C      0.940910000000     0.872630000000     0.475160000000    -0.0127025  
C475     C      0.502650000000     0.900060000000     0.000630000000    -0.00633497 
C476     C      0.940190000000     0.900230000000     0.998540000000    -0.00790738 
C477     C      0.941010000000     0.646970000000     0.504720000000    -0.0138474  
C478     C      0.503530000000     0.647710000000     0.504730000000    -0.0135711  
C479     C      0.941380000000     0.619790000000     0.028510000000    -0.00662797 
C480     C      0.502900000000     0.620010000000     0.027970000000    -0.00662976 
C481     C      0.971920000000     0.769580000000     0.555670000000     0.40212    
C482     C      0.971960000000     0.750270000000     0.931920000000     0.402967   
C483     C      0.471790000000     0.823030000000     0.984140000000     0.400682   
C484     C      0.972140000000     0.697440000000     0.502650000000     0.399457   
C485     C      0.971800000000     0.755500000000     0.681820000000     0.402097   
C486     C      0.971880000000     0.765590000000     0.806650000000     0.402652   
C487     C      0.971270000000     0.697480000000     0.749500000000     0.399605   
C488     C      0.972370000000     0.823510000000     0.739950000000     0.40038    
C489     C      0.971530000000     0.950560000000     0.500900000000     0.476427   
C490     C      0.472130000000     0.570000000000     0.018120000000     0.47589    
C491     C      0.472180000000     0.519910000000     0.948780000000     0.464879   
C492     C      0.971250000000     0.004070000000     0.568400000000     0.455705   
C493     C      0.972550000000     0.948130000000     0.764850000000     0.474144   
C494     C      0.470880000000     0.567590000000     0.749390000000     0.477019   
C495     C      0.468760000000     0.999210000000     0.698870000000     0.4709     
C496     C      0.974700000000     0.014070000000     0.818530000000     0.461924   
C497     C      0.215330000000     0.511670000000     0.576930000000     0.404836   
C498     C      0.228000000000     0.508520000000     0.952620000000     0.403694   
C499     C      0.287420000000     0.510980000000     0.018960000000     0.398892   
C500     C      0.156140000000     0.509710000000     0.510430000000     0.400009   
C501     C      0.215620000000     0.007470000000     0.826580000000     0.398084   
C502     C      0.228390000000     0.010670000000     0.702280000000     0.398619   
C503     C      0.287600000000     0.008370000000     0.768290000000     0.393994   
C504     C      0.156310000000     0.009280000000     0.759560000000     0.393706   
C505     C      0.208060000000     0.536620000000     0.876620000000    -0.0109918  
C506     C      0.209630000000     0.977120000000     0.876380000000    -0.00870038 
C507     C      0.234370000000     0.537260000000     0.902210000000    -0.0110957  
C508     C      0.234930000000     0.977740000000     0.903190000000    -0.00888419 
C509     C      0.209270000000     0.542000000000     0.626690000000    -0.0114961  
C510     C      0.207930000000     0.982490000000     0.626930000000    -0.00800526 
C511     C      0.235220000000     0.541460000000     0.652890000000    -0.0114754  
C512     C      0.234850000000     0.981940000000     0.651910000000    -0.00813791 
C513     C      0.104240000000     0.039480000000     0.759850000000    -0.00427484 
C514     C      0.105290000000     0.980630000000     0.745910000000    -0.00277084 
C515     C      0.069210000000     0.534010000000     0.772110000000    -0.0232379  
C516     C      0.069350000000     0.479020000000     0.757100000000    -0.0214916  
C517     C      0.374450000000     0.038170000000     0.763680000000    -0.0186418  
C518     C      0.372580000000     0.983350000000     0.747740000000    -0.0154375  
C519     C      0.339980000000     0.536470000000     0.778540000000    -0.00683081 
C520     C      0.339230000000     0.477820000000     0.763650000000    -0.00541576 
C521     C      0.069110000000     0.539870000000     0.509440000000    -0.0198676  
C522     C      0.069300000000     0.985070000000     0.025260000000    -0.0165262  
C523     C      0.104830000000     0.538240000000     0.497730000000    -0.00592947 
C524     C      0.104160000000     0.979460000000     0.012620000000    -0.00182879 
C525     C      0.339350000000     0.981050000000     0.019420000000     0.000853604
C526     C      0.338030000000     0.540780000000     0.007970000000    -0.00409141 
C527     C      0.375800000000     0.985640000000     0.527320000000    -0.022995   
C528     C      0.375310000000     0.540830000000     0.514190000000    -0.0241601  
C529     C      0.943140000000     0.011480000000     0.868380000000    -0.0163991  
C530     C      0.005480000000     0.512420000000     0.869090000000    -0.0103012  
C531     C      0.442580000000     0.030210000000     0.898500000000    -0.00823735 
C532     C      0.504250000000     0.530630000000     0.899820000000    -0.0100792  
C533     C      0.499410000000     0.986920000000     0.649610000000    -0.00290518 
C534     C      0.437820000000     0.490180000000     0.648940000000    -0.00993359 
C535     C      0.001360000000     0.005130000000     0.619120000000    -0.0220988  
C536     C      0.439130000000     0.509110000000     0.618040000000    -0.0101469  
C537     C      0.003570000000     0.897340000000     0.767210000000    -0.00750115 
C538     C      0.441620000000     0.897110000000     0.765600000000    -0.00720997 
C539     C      0.003690000000     0.874220000000     0.739350000000    -0.0137667  
C540     C      0.441700000000     0.874450000000     0.737470000000    -0.0132491  
C541     C      0.502000000000     0.647500000000     0.758990000000    -0.0133757  
C542     C      0.439880000000     0.647780000000     0.758760000000    -0.0136799  
C543     C      0.001750000000     0.617020000000     0.737310000000    -0.00744212 
C544     C      0.939830000000     0.617070000000     0.737470000000    -0.00711462 
C545     C      0.002970000000     0.769480000000     0.856840000000    -0.011895   
C546     C      0.440890000000     0.770850000000     0.856510000000    -0.0116802  
C547     C      0.002890000000     0.743490000000     0.881930000000    -0.0115935  
C548     C      0.440980000000     0.744880000000     0.881630000000    -0.0114399  
C549     C      0.002840000000     0.751300000000     0.631600000000    -0.0119296  
C550     C      0.440810000000     0.750500000000     0.631270000000    -0.0116717  
C551     C      0.002840000000     0.776470000000     0.605680000000    -0.0117831  
C552     C      0.440980000000     0.776020000000     0.605680000000    -0.0116069  
C553     C      0.002500000000     0.872730000000     0.975700000000    -0.013046   
C554     C      0.440910000000     0.873250000000     0.975700000000    -0.0129164  
C555     C      0.002640000000     0.900110000000     0.499290000000    -0.0077788  
C556     C      0.440220000000     0.900150000000     0.499860000000    -0.007583   
C557     C      0.441040000000     0.647560000000     0.004190000000    -0.0133838  
C558     C      0.003540000000     0.647110000000     0.005160000000    -0.0137503  
C559     C      0.441340000000     0.620020000000     0.527560000000    -0.00638671 
C560     C      0.002940000000     0.619750000000     0.528810000000    -0.00708129 
C561     C      0.471940000000     0.769680000000     0.555600000000     0.401895   
C562     C      0.471950000000     0.751250000000     0.931650000000     0.402437   
C563     C      0.971760000000     0.822450000000     0.984070000000     0.400198   
C564     C      0.472150000000     0.697980000000     0.502270000000     0.399727   
C565     C      0.471820000000     0.754680000000     0.681540000000     0.401763   
C566     C      0.471870000000     0.766450000000     0.806280000000     0.402301   
C567     C      0.471290000000     0.697580000000     0.750240000000     0.399754   
C568     C      0.472360000000     0.823450000000     0.738790000000     0.400677   
C569     C      0.471530000000     0.950590000000     0.501860000000     0.477624   
C570     C      0.972150000000     0.569780000000     0.018860000000     0.475058   
C571     C      0.972190000000     0.520470000000     0.948860000000     0.463976   
C572     C      0.471250000000     0.005080000000     0.568460000000     0.456377   
C573     C      0.472510000000     0.947960000000     0.764080000000     0.474216   
C574     C      0.970830000000     0.567530000000     0.748580000000     0.477217   
C575     C      0.968800000000     0.998720000000     0.698990000000     0.470156   
C576     C      0.474740000000     0.013280000000     0.818490000000     0.461945   
C577     C      0.715390000000     0.511630000000     0.576880000000     0.404874   
C578     C      0.727990000000     0.508490000000     0.952570000000     0.403746   
C579     C      0.787450000000     0.510890000000     0.018880000000     0.399162   
C580     C      0.656170000000     0.509750000000     0.510410000000     0.399986   
C581     C      0.715610000000     0.007450000000     0.826530000000     0.397988   
C582     C      0.728460000000     0.010630000000     0.702240000000     0.398905   
C583     C      0.787630000000     0.008390000000     0.768280000000     0.3938     
C584     C      0.656340000000     0.009200000000     0.759480000000     0.39373    
C585     C      0.708030000000     0.536600000000     0.876570000000    -0.0110801  
C586     C      0.709580000000     0.977100000000     0.876330000000    -0.00872104 
C587     C      0.734350000000     0.537240000000     0.902150000000    -0.0111241  
C588     C      0.734880000000     0.977710000000     0.903130000000    -0.00891503 
C589     C      0.709340000000     0.541960000000     0.626650000000    -0.0115205  
C590     C      0.708020000000     0.982450000000     0.626890000000    -0.00797485 
C591     C      0.735290000000     0.541430000000     0.652850000000    -0.0114994  
C592     C      0.734940000000     0.981900000000     0.651870000000    -0.00822287 
C593     C      0.604250000000     0.039360000000     0.759870000000    -0.00428798 
C594     C      0.605330000000     0.980560000000     0.745720000000    -0.00289192 
C595     C      0.569240000000     0.533830000000     0.772130000000    -0.0232893  
C596     C      0.569380000000     0.478910000000     0.756870000000    -0.0214775  
C597     C      0.874450000000     0.038220000000     0.763560000000    -0.0184823  
C598     C      0.872640000000     0.983330000000     0.747870000000    -0.0154839  
C599     C      0.839980000000     0.536570000000     0.778430000000    -0.00694717 
C600     C      0.839280000000     0.477840000000     0.763790000000    -0.00551052 
C601     C      0.569140000000     0.539980000000     0.509280000000    -0.0196551  
C602     C      0.569320000000     0.985280000000     0.025390000000    -0.0164984  
C603     C      0.604880000000     0.538290000000     0.497620000000    -0.00608642 
C604     C      0.604160000000     0.979580000000     0.012760000000    -0.00173177 
C605     C      0.839360000000     0.980910000000     0.019190000000     0.000841633
C606     C      0.838080000000     0.540700000000     0.008030000000    -0.00414613 
C607     C      0.875810000000     0.985420000000     0.527130000000    -0.0231061  
C608     C      0.875340000000     0.540700000000     0.514330000000    -0.0240725  
C609     C      0.443200000000     0.010300000000     0.868340000000    -0.0164106  
C610     C      0.505510000000     0.511400000000     0.869060000000    -0.00998104 
C611     C      0.942610000000     0.031230000000     0.898650000000    -0.00827965 
C612     C      0.004260000000     0.531510000000     0.899940000000    -0.0105304  
C613     C      0.999470000000     0.986100000000     0.649820000000    -0.00170026 
C614     C      0.937880000000     0.489190000000     0.649140000000    -0.00996984 
C615     C      0.501380000000     0.006420000000     0.619220000000    -0.0208946  
C616     C      0.939120000000     0.507660000000     0.617940000000    -0.00994166 
C617     C      0.503510000000     0.897130000000     0.765870000000    -0.00729407 
C618     C      0.941750000000     0.897240000000     0.767060000000    -0.00684061 
C619     C      0.503640000000     0.874180000000     0.737900000000    -0.0134831  
C620     C      0.941750000000     0.874560000000     0.738960000000    -0.0130505  
C621     C      0.001970000000     0.647260000000     0.757120000000    -0.0135372  
C622     C      0.939870000000     0.647570000000     0.757010000000    -0.0134113  
C623     C      0.501810000000     0.617280000000     0.739120000000    -0.00699428 
C624     C      0.439920000000     0.617330000000     0.739150000000    -0.00682747 
C625     C      0.502930000000     0.770840000000     0.856470000000    -0.0117417  
C626     C      0.940920000000     0.769520000000     0.856930000000    -0.0114031  
C627     C      0.502870000000     0.744890000000     0.881600000000    -0.0113285  
C628     C      0.941060000000     0.743440000000     0.881900000000    -0.0110646  
C629     C      0.502840000000     0.750300000000     0.631290000000    -0.0117244  
C630     C      0.940790000000     0.751470000000     0.631550000000    -0.0113546  
C631     C      0.502870000000     0.775850000000     0.605720000000    -0.011607   
C632     C      0.941000000000     0.776660000000     0.605680000000    -0.0112166  
C633     C      0.502550000000     0.873380000000     0.976270000000    -0.0135157  
C634     C      0.940910000000     0.872630000000     0.975160000000    -0.0125984  
C635     C      0.502650000000     0.900060000000     0.500630000000    -0.00733145 
C636     C      0.940190000000     0.900230000000     0.498540000000    -0.00749985 
C637     C      0.941010000000     0.646970000000     0.004720000000    -0.0133703  
C638     C      0.503540000000     0.647710000000     0.004730000000    -0.0132342  
C639     C      0.941380000000     0.619790000000     0.528510000000    -0.00650856 
C640     C      0.502900000000     0.620010000000     0.527970000000    -0.00657811 
Cu1      Cu     0.002430000000     0.260070000000     0.493760000000     0.842747   
Cu2      Cu     0.441470000000     0.260490000000     0.993580000000     0.843842   
Cu3      Cu     0.002310000000     0.260270000000     0.244280000000     0.843002   
Cu4      Cu     0.441350000000     0.260680000000     0.243940000000     0.843945   
Cu5      Cu     0.436660000000     0.010640000000     0.507890000000     1.17607    
Cu6      Cu     0.006600000000     0.510170000000     0.008720000000     1.186      
Cu7      Cu     0.436900000000     0.007900000000     0.259290000000     1.18441    
Cu8      Cu     0.006730000000     0.508230000000     0.257800000000     1.17875    
Cu9      Cu     0.222020000000     0.480930000000     0.515660000000     0.846668   
Cu10     Cu     0.221510000000     0.039480000000     0.013980000000     0.843319   
Cu11     Cu     0.221760000000     0.479680000000     0.263530000000     0.848199   
Cu12     Cu     0.222120000000     0.038230000000     0.265250000000     0.841168   
Cu13     Cu     0.502450000000     0.260620000000     0.493580000000     0.844421   
Cu14     Cu     0.941450000000     0.259930000000     0.993740000000     0.844373   
Cu15     Cu     0.502320000000     0.260270000000     0.243970000000     0.84395    
Cu16     Cu     0.941340000000     0.260690000000     0.244270000000     0.844826   
Cu17     Cu     0.936680000000     0.010540000000     0.507890000000     1.17478    
Cu18     Cu     0.506610000000     0.510300000000     0.008720000000     1.19019    
Cu19     Cu     0.936920000000     0.007980000000     0.259360000000     1.18365    
Cu20     Cu     0.506740000000     0.508120000000     0.257720000000     1.18073    
Cu21     Cu     0.722010000000     0.480900000000     0.515610000000     0.846845   
Cu22     Cu     0.721570000000     0.039450000000     0.013930000000     0.843299   
Cu23     Cu     0.721810000000     0.479650000000     0.263480000000     0.847999   
Cu24     Cu     0.722120000000     0.038190000000     0.265200000000     0.841194   
Cu25     Cu     0.002430000000     0.260070000000     0.993760000000     0.842277   
Cu26     Cu     0.441470000000     0.260490000000     0.493580000000     0.844322   
Cu27     Cu     0.002310000000     0.260270000000     0.744280000000     0.842842   
Cu28     Cu     0.441350000000     0.260680000000     0.743940000000     0.843941   
Cu29     Cu     0.436650000000     0.010640000000     0.007890000000     1.17646    
Cu30     Cu     0.006600000000     0.510170000000     0.508710000000     1.18563    
Cu31     Cu     0.436900000000     0.007900000000     0.759290000000     1.18442    
Cu32     Cu     0.006730000000     0.508230000000     0.757800000000     1.17881    
Cu33     Cu     0.222020000000     0.480930000000     0.015660000000     0.846946   
Cu34     Cu     0.221510000000     0.039480000000     0.513980000000     0.842959   
Cu35     Cu     0.221760000000     0.479680000000     0.763530000000     0.848181   
Cu36     Cu     0.222120000000     0.038230000000     0.765250000000     0.841154   
Cu37     Cu     0.502450000000     0.260620000000     0.993580000000     0.843893   
Cu38     Cu     0.941450000000     0.259930000000     0.493740000000     0.844854   
Cu39     Cu     0.502320000000     0.260270000000     0.743970000000     0.843945   
Cu40     Cu     0.941340000000     0.260690000000     0.744270000000     0.84482    
Cu41     Cu     0.936680000000     0.010540000000     0.007890000000     1.17497    
Cu42     Cu     0.506610000000     0.510300000000     0.508720000000     1.18987    
Cu43     Cu     0.936920000000     0.007980000000     0.759360000000     1.1837     
Cu44     Cu     0.506740000000     0.508120000000     0.757720000000     1.18092    
Cu45     Cu     0.722010000000     0.480900000000     0.015610000000     0.847198   
Cu46     Cu     0.721570000000     0.039450000000     0.513930000000     0.84296    
Cu47     Cu     0.721810000000     0.479650000000     0.763480000000     0.847975   
Cu48     Cu     0.722120000000     0.038190000000     0.765200000000     0.841081   
Cu49     Cu     0.002430000000     0.760070000000     0.493760000000     0.842531   
Cu50     Cu     0.441470000000     0.760490000000     0.993580000000     0.843917   
Cu51     Cu     0.002310000000     0.760270000000     0.244280000000     0.842943   
Cu52     Cu     0.441350000000     0.760680000000     0.243940000000     0.843942   
Cu53     Cu     0.436650000000     0.510640000000     0.507890000000     1.18095    
Cu54     Cu     0.006600000000     0.010170000000     0.008720000000     1.18094    
Cu55     Cu     0.436900000000     0.507900000000     0.259290000000     1.18869    
Cu56     Cu     0.006730000000     0.008230000000     0.257800000000     1.17485    
Cu57     Cu     0.222020000000     0.980930000000     0.515660000000     0.849456   
Cu58     Cu     0.221510000000     0.539480000000     0.013980000000     0.848613   
Cu59     Cu     0.221760000000     0.979680000000     0.263530000000     0.851057   
Cu60     Cu     0.222120000000     0.538230000000     0.265250000000     0.846481   
Cu61     Cu     0.502450000000     0.760620000000     0.493580000000     0.844317   
Cu62     Cu     0.941450000000     0.759930000000     0.993740000000     0.844316   
Cu63     Cu     0.502320000000     0.760270000000     0.243970000000     0.843795   
Cu64     Cu     0.941340000000     0.760690000000     0.244270000000     0.844793   
Cu65     Cu     0.936680000000     0.510540000000     0.507890000000     1.17974    
Cu66     Cu     0.506610000000     0.010300000000     0.008720000000     1.18509    
Cu67     Cu     0.936920000000     0.507980000000     0.259360000000     1.18768    
Cu68     Cu     0.506740000000     0.008120000000     0.257720000000     1.17702    
Cu69     Cu     0.722010000000     0.980900000000     0.515610000000     0.84968    
Cu70     Cu     0.721560000000     0.539450000000     0.013930000000     0.848381   
Cu71     Cu     0.721810000000     0.979650000000     0.263480000000     0.850835   
Cu72     Cu     0.722120000000     0.538190000000     0.265200000000     0.846389   
Cu73     Cu     0.002430000000     0.760070000000     0.993760000000     0.842228   
Cu74     Cu     0.441470000000     0.760490000000     0.493580000000     0.844279   
Cu75     Cu     0.002310000000     0.760270000000     0.744280000000     0.842783   
Cu76     Cu     0.441350000000     0.760680000000     0.743940000000     0.84391    
Cu77     Cu     0.436650000000     0.510640000000     0.007890000000     1.18145    
Cu78     Cu     0.006600000000     0.010170000000     0.508710000000     1.18045    
Cu79     Cu     0.436900000000     0.507900000000     0.759290000000     1.18843    
Cu80     Cu     0.006730000000     0.008230000000     0.757800000000     1.17483    
Cu81     Cu     0.222020000000     0.980930000000     0.015660000000     0.84985    
Cu82     Cu     0.221510000000     0.539480000000     0.513980000000     0.8482     
Cu83     Cu     0.221760000000     0.979680000000     0.763530000000     0.851015   
Cu84     Cu     0.222120000000     0.538230000000     0.765250000000     0.846448   
Cu85     Cu     0.502450000000     0.760620000000     0.993580000000     0.843875   
Cu86     Cu     0.941460000000     0.759930000000     0.493740000000     0.844755   
Cu87     Cu     0.502320000000     0.760280000000     0.743970000000     0.843769   
Cu88     Cu     0.941340000000     0.760690000000     0.744270000000     0.844789   
Cu89     Cu     0.936680000000     0.510540000000     0.007890000000     1.18033    
Cu90     Cu     0.506610000000     0.010300000000     0.508720000000     1.18455    
Cu91     Cu     0.936920000000     0.507980000000     0.759360000000     1.18764    
Cu92     Cu     0.506740000000     0.008120000000     0.757720000000     1.17703    
Cu93     Cu     0.722010000000     0.980900000000     0.015610000000     0.850041   
Cu94     Cu     0.721570000000     0.539450000000     0.513930000000     0.84804    
Cu95     Cu     0.721810000000     0.979650000000     0.763480000000     0.850842   
Cu96     Cu     0.722120000000     0.538190000000     0.765200000000     0.846351   
H1       H      0.184590000000     0.974820000000     0.386920000000     0.040292   
H2       H      0.183380000000     0.037160000000     0.388130000000     0.0388004  
H3       H      0.231180000000     0.059060000000     0.416590000000     0.0426322  
H4       H      0.214100000000     0.455860000000     0.361530000000     0.0426646  
H5       H      0.231270000000     0.456530000000     0.418310000000     0.0427433  
H6       H      0.260020000000     0.476140000000     0.392660000000     0.039447   
H7       H      0.210360000000     0.058330000000     0.361980000000     0.0427805  
H8       H      0.259020000000     0.538530000000     0.390710000000     0.0396989  
H9       H      0.183540000000     0.481950000000     0.138980000000     0.0393983  
H10      H      0.184480000000     0.544090000000     0.137800000000     0.0394092  
H11      H      0.231940000000     0.062690000000     0.168070000000     0.0426847  
H12      H      0.209880000000     0.460780000000     0.112240000000     0.0426877  
H13      H      0.232170000000     0.460110000000     0.166340000000     0.0425545  
H14      H      0.259220000000     0.980860000000     0.139870000000     0.0404888  
H15      H      0.213200000000     0.063310000000     0.111770000000     0.0426269  
H16      H      0.260050000000     0.043040000000     0.141790000000     0.0385792  
H17      H      0.105500000000     0.480810000000     0.219720000000     0.0370022  
H18      H      0.102830000000     0.550720000000     0.236200000000     0.0391601  
H19      H      0.055410000000     0.056620000000     0.270450000000     0.0347916  
H20      H      0.118060000000     0.458590000000     0.253540000000     0.0404661  
H21      H      0.056490000000     0.460950000000     0.242610000000     0.0347393  
H22      H      0.068190000000     0.971440000000     0.282180000000     0.0369     
H23      H      0.116980000000     0.056380000000     0.275890000000     0.0388139  
H24      H      0.069800000000     0.026870000000     0.297340000000     0.0364388  
H25      H      0.369090000000     0.490970000000     0.222860000000     0.0354262  
H26      H      0.372790000000     0.546220000000     0.238780000000     0.0351623  
H27      H      0.326500000000     0.058690000000     0.272770000000     0.0407366  
H28      H      0.386440000000     0.460720000000     0.247550000000     0.0339084  
H29      H      0.324720000000     0.461040000000     0.248920000000     0.0395009  
H30      H      0.343430000000     0.966380000000     0.286910000000     0.0402116  
H31      H      0.389050000000     0.055880000000     0.277080000000     0.0335796  
H32      H      0.342800000000     0.035710000000     0.304580000000     0.0367405  
H33      H      0.070180000000     0.492660000000     0.550350000000     0.0355459  
H34      H      0.068310000000     0.547710000000     0.034450000000     0.0353658  
H35      H      0.117700000000     0.060330000000     0.005070000000     0.0410725  
H36      H      0.055450000000     0.462450000000     0.524130000000     0.0342182  
H37      H      0.117260000000     0.463060000000     0.528900000000     0.0390197  
H38      H      0.102430000000     0.967580000000     0.489310000000     0.0402507  
H39      H      0.055900000000     0.057710000000     0.994950000000     0.0339661  
H40      H      0.104630000000     0.037950000000     0.971540000000     0.0370822  
H41      H      0.333850000000     0.043760000000     0.482250000000     0.0380916  
H42      H      0.337320000000     0.469230000000     0.496080000000     0.0401967  
H43      H      0.388600000000     0.462750000000     0.023610000000     0.0362048  
H44      H      0.327040000000     0.061890000000     0.519700000000     0.0394285  
H45      H      0.386510000000     0.059180000000     0.498810000000     0.0357285  
H46      H      0.380440000000     0.047380000000     0.039110000000     0.0354723  
H47      H      0.328180000000     0.464850000000     0.037150000000     0.0375479  
H48      H      0.378720000000     0.492180000000     0.052560000000     0.0377831  
H49      H      0.009410000000     0.987040000000     0.375080000000     0.0443839  
H50      H      0.940200000000     0.486090000000     0.374870000000     0.0402818  
H51      H      0.419940000000     0.524240000000     0.412060000000     0.0432622  
H52      H      0.027210000000     0.020420000000     0.355170000000     0.0410853  
H53      H      0.026260000000     0.025370000000     0.414350000000     0.0417853  
H54      H      0.506060000000     0.056210000000     0.393660000000     0.0367891  
H55      H      0.421340000000     0.516870000000     0.353900000000     0.0431892  
H56      H      0.440950000000     0.555630000000     0.391700000000     0.0375852  
H57      H      0.434530000000     0.964690000000     0.142980000000     0.0363658  
H58      H      0.499620000000     0.461380000000     0.143130000000     0.0370767  
H59      H      0.023090000000     0.496700000000     0.105460000000     0.0407205  
H60      H      0.415800000000     0.997820000000     0.162610000000     0.0416816  
H61      H      0.417330000000     0.002470000000     0.103550000000     0.0395259  
H62      H      0.936210000000     0.033390000000     0.122950000000     0.0391148  
H63      H      0.021980000000     0.491090000000     0.163950000000     0.0423379  
H64      H      0.005670000000     0.530460000000     0.125110000000     0.0398612  
H65      H      0.440230000000     0.382710000000     0.287500000000     0.0386355  
H66      H      0.504800000000     0.382920000000     0.287890000000     0.0384696  
H67      H      0.025990000000     0.358950000000     0.240830000000     0.0425502  
H68      H      0.419170000000     0.412210000000     0.264600000000     0.0399472  
H69      H      0.419180000000     0.359420000000     0.238340000000     0.0426588  
H70      H      0.940210000000     0.388500000000     0.216780000000     0.0390376  
H71      H      0.025990000000     0.412480000000     0.266090000000     0.0390113  
H72      H      0.005470000000     0.388310000000     0.217280000000     0.038717   
H73      H      0.437460000000     0.141160000000     0.284000000000     0.0386632  
H74      H      0.504040000000     0.140620000000     0.284200000000     0.0388775  
H75      H      0.024100000000     0.102870000000     0.243060000000     0.0397587  
H76      H      0.417810000000     0.162020000000     0.252270000000     0.0426939  
H77      H      0.417730000000     0.103300000000     0.245750000000     0.0387261  
H78      H      0.937940000000     0.123670000000     0.212180000000     0.03782    
H79      H      0.024130000000     0.161220000000     0.250290000000     0.0426306  
H80      H      0.003370000000     0.123870000000     0.212060000000     0.0378636  
H81      H      0.439330000000     0.294200000000     0.368580000000     0.0398835  
H82      H      0.004610000000     0.292820000000     0.368940000000     0.0398185  
H83      H      0.025360000000     0.245840000000     0.396780000000     0.0425543  
H84      H      0.418490000000     0.268180000000     0.341630000000     0.0426808  
H85      H      0.418540000000     0.247290000000     0.396490000000     0.0426767  
H86      H      0.439710000000     0.221520000000     0.369530000000     0.0393509  
H87      H      0.025340000000     0.266790000000     0.341910000000     0.0426423  
H88      H      0.004100000000     0.220130000000     0.369820000000     0.0391788  
H89      H      0.439060000000     0.226950000000     0.119600000000     0.0398275  
H90      H      0.504430000000     0.226750000000     0.119610000000     0.0398942  
H91      H      0.025280000000     0.273500000000     0.090920000000     0.0425748  
H92      H      0.418450000000     0.253550000000     0.146130000000     0.0427536  
H93      H      0.418550000000     0.273350000000     0.090840000000     0.0426314  
H94      H      0.939420000000     0.300590000000     0.116590000000     0.0391265  
H95      H      0.025190000000     0.254480000000     0.146450000000     0.0427182  
H96      H      0.004210000000     0.300200000000     0.117050000000     0.0393125  
H97      H      0.440040000000     0.383960000000     0.451780000000     0.0388813  
H98      H      0.003770000000     0.382910000000     0.451570000000     0.0387972  
H99      H      0.024670000000     0.415130000000     0.994610000000     0.0402407  
H100     H      0.418440000000     0.358410000000     0.478620000000     0.0427036  
H101     H      0.418330000000     0.415300000000     0.495070000000     0.0401424  
H102     H      0.437000000000     0.389590000000     0.023660000000     0.0385066  
H103     H      0.024990000000     0.358070000000     0.979340000000     0.0425463  
H104     H      0.005280000000     0.390100000000     0.023380000000     0.0387161  
H105     H      0.006900000000     0.137020000000     0.481180000000     0.0398243  
H106     H      0.438230000000     0.137710000000     0.480050000000     0.0402925  
H107     H      0.418860000000     0.105350000000     0.024010000000     0.0384134  
H108     H      0.025350000000     0.162250000000     0.510320000000     0.0426061  
H109     H      0.025430000000     0.105010000000     0.525590000000     0.0387681  
H110     H      0.003770000000     0.129980000000     0.052940000000     0.0367837  
H111     H      0.419040000000     0.162530000000     0.009110000000     0.042668   
H112     H      0.440240000000     0.130020000000     0.051770000000     0.0366484  
H113     H      0.684550000000     0.974820000000     0.386870000000     0.0403076  
H114     H      0.683360000000     0.037140000000     0.388070000000     0.0388055  
H115     H      0.731160000000     0.059030000000     0.416540000000     0.0426685  
H116     H      0.714040000000     0.455830000000     0.361480000000     0.0426165  
H117     H      0.731220000000     0.456500000000     0.418260000000     0.042751   
H118     H      0.759980000000     0.476100000000     0.392600000000     0.0394621  
H119     H      0.710340000000     0.058310000000     0.361920000000     0.0427961  
H120     H      0.759000000000     0.538500000000     0.390660000000     0.039742   
H121     H      0.683630000000     0.481890000000     0.138930000000     0.0393979  
H122     H      0.684560000000     0.544050000000     0.137760000000     0.0394303  
H123     H      0.732010000000     0.062650000000     0.168030000000     0.0426996  
H124     H      0.709990000000     0.460740000000     0.112200000000     0.0426825  
H125     H      0.732280000000     0.460080000000     0.166290000000     0.0425705  
H126     H      0.759320000000     0.980830000000     0.139830000000     0.0404996  
H127     H      0.713270000000     0.063270000000     0.111730000000     0.0426366  
H128     H      0.760120000000     0.043010000000     0.141750000000     0.0385828  
H129     H      0.605570000000     0.480810000000     0.219540000000     0.0370044  
H130     H      0.602820000000     0.550670000000     0.236250000000     0.039212   
H131     H      0.555450000000     0.056450000000     0.270590000000     0.0348938  
H132     H      0.618110000000     0.458510000000     0.253310000000     0.0405037  
H133     H      0.556530000000     0.460910000000     0.242280000000     0.034761   
H134     H      0.568190000000     0.971210000000     0.281910000000     0.0368963  
H135     H      0.616990000000     0.056210000000     0.275950000000     0.0388153  
H136     H      0.569850000000     0.026570000000     0.297320000000     0.0364398  
H137     H      0.869170000000     0.490820000000     0.222960000000     0.0354762  
H138     H      0.872760000000     0.546140000000     0.238610000000     0.035174   
H139     H      0.826490000000     0.058750000000     0.272570000000     0.0407755  
H140     H      0.886520000000     0.460710000000     0.247810000000     0.0339404  
H141     H      0.824790000000     0.460990000000     0.249120000000     0.0395316  
H142     H      0.843470000000     0.966500000000     0.287100000000     0.0402175  
H143     H      0.889050000000     0.056020000000     0.276840000000     0.0335325  
H144     H      0.842820000000     0.035920000000     0.304470000000     0.0368079  
H145     H      0.570230000000     0.493010000000     0.550440000000     0.0355718  
H146     H      0.568310000000     0.547970000000     0.034250000000     0.0353837  
H147     H      0.617760000000     0.060390000000     0.004890000000     0.0410792  
H148     H      0.555470000000     0.462650000000     0.524410000000     0.0343254  
H149     H      0.617250000000     0.463230000000     0.529100000000     0.0389426  
H150     H      0.602400000000     0.967590000000     0.489490000000     0.0402612  
H151     H      0.555950000000     0.057750000000     0.994680000000     0.0340316  
H152     H      0.604710000000     0.037910000000     0.971430000000     0.0370617  
H153     H      0.833970000000     0.043760000000     0.482300000000     0.0381052  
H154     H      0.837330000000     0.469210000000     0.495790000000     0.0401788  
H155     H      0.888620000000     0.462560000000     0.023270000000     0.0362319  
H156     H      0.827080000000     0.061760000000     0.519800000000     0.0394222  
H157     H      0.886590000000     0.059150000000     0.499090000000     0.0356703  
H158     H      0.880410000000     0.047090000000     0.039300000000     0.0354914  
H159     H      0.828170000000     0.464620000000     0.036830000000     0.037556   
H160     H      0.878720000000     0.491800000000     0.052410000000     0.037846   
H161     H      0.509400000000     0.986040000000     0.375170000000     0.0443495  
H162     H      0.440430000000     0.484930000000     0.374980000000     0.0400822  
H163     H      0.919950000000     0.525270000000     0.412180000000     0.0432256  
H164     H      0.527260000000     0.019320000000     0.355120000000     0.0411028  
H165     H      0.526250000000     0.024570000000     0.414260000000     0.0418014  
H166     H      0.006080000000     0.057110000000     0.393900000000     0.0366832  
H167     H      0.921340000000     0.518260000000     0.353950000000     0.0431559  
H168     H      0.941080000000     0.556690000000     0.391980000000     0.0375588  
H169     H      0.934630000000     0.963600000000     0.143580000000     0.0363353  
H170     H      0.999790000000     0.460450000000     0.143730000000     0.0370043  
H171     H      0.523140000000     0.498210000000     0.105470000000     0.0407202  
H172     H      0.915860000000     0.997000000000     0.162710000000     0.0417205  
H173     H      0.917510000000     0.000010000000     0.103670000000     0.039318   
H174     H      0.436750000000     0.034720000000     0.123830000000     0.0391898  
H175     H      0.521930000000     0.491600000000     0.163840000000     0.0428719  
H176     H      0.505700000000     0.531650000000     0.125630000000     0.0397518  
H177     H      0.940180000000     0.383290000000     0.289230000000     0.0383002  
H178     H      0.004850000000     0.383240000000     0.289310000000     0.0382953  
H179     H      0.525960000000     0.358920000000     0.239260000000     0.0425928  
H180     H      0.919310000000     0.412350000000     0.265900000000     0.0399051  
H181     H      0.919280000000     0.359490000000     0.240210000000     0.0426623  
H182     H      0.440540000000     0.388860000000     0.215560000000     0.0391415  
H183     H      0.525930000000     0.412280000000     0.264830000000     0.0390563  
H184     H      0.505360000000     0.388390000000     0.215900000000     0.0387514  
H185     H      0.937040000000     0.141500000000     0.282350000000     0.0386227  
H186     H      0.004540000000     0.140930000000     0.282420000000     0.0387231  
H187     H      0.524030000000     0.103200000000     0.245440000000     0.0396482  
H188     H      0.917940000000     0.161730000000     0.249910000000     0.0426033  
H189     H      0.917540000000     0.102990000000     0.243610000000     0.0388727  
H190     H      0.437650000000     0.123470000000     0.213780000000     0.0376245  
H191     H      0.524320000000     0.161550000000     0.252860000000     0.042725   
H192     H      0.503930000000     0.123660000000     0.213800000000     0.0378745  
H193     H      0.938990000000     0.293030000000     0.368640000000     0.0397285  
H194     H      0.504510000000     0.294200000000     0.368530000000     0.039868   
H195     H      0.525330000000     0.247320000000     0.396440000000     0.0426104  
H196     H      0.918590000000     0.266530000000     0.342020000000     0.0426731  
H197     H      0.918640000000     0.245950000000     0.396780000000     0.0426088  
H198     H      0.939580000000     0.219910000000     0.370160000000     0.0390337  
H199     H      0.525310000000     0.268180000000     0.341560000000     0.0426984  
H200     H      0.504140000000     0.221520000000     0.369520000000     0.0393247  
H201     H      0.938590000000     0.227580000000     0.120670000000     0.0396108  
H202     H      0.004500000000     0.227580000000     0.120260000000     0.0398088  
H203     H      0.525310000000     0.273050000000     0.090910000000     0.0426078  
H204     H      0.918520000000     0.255200000000     0.146400000000     0.0427127  
H205     H      0.918610000000     0.273540000000     0.090870000000     0.0425677  
H206     H      0.439690000000     0.299590000000     0.117360000000     0.0394737  
H207     H      0.525210000000     0.253210000000     0.146170000000     0.042819   
H208     H      0.504300000000     0.299400000000     0.117420000000     0.0394597  
H209     H      0.939610000000     0.382110000000     0.450750000000     0.0385898  
H210     H      0.503790000000     0.384260000000     0.452440000000     0.038911   
H211     H      0.524740000000     0.415150000000     0.996500000000     0.0397498  
H212     H      0.918510000000     0.357880000000     0.478920000000     0.0426808  
H213     H      0.918570000000     0.415300000000     0.492500000000     0.0402703  
H214     H      0.936350000000     0.390850000000     0.022730000000     0.0382661  
H215     H      0.525040000000     0.358630000000     0.979470000000     0.0427567  
H216     H      0.505120000000     0.389320000000     0.024430000000     0.0383574  
H217     H      0.507360000000     0.138440000000     0.480490000000     0.0396715  
H218     H      0.938120000000     0.136740000000     0.480750000000     0.0403591  
H219     H      0.918880000000     0.105070000000     0.025270000000     0.0384196  
H220     H      0.525150000000     0.162770000000     0.510840000000     0.0425851  
H221     H      0.525330000000     0.105320000000     0.524170000000     0.0387857  
H222     H      0.504130000000     0.129350000000     0.052430000000     0.0365756  
H223     H      0.919020000000     0.162020000000     0.009470000000     0.042672   
H224     H      0.940390000000     0.130160000000     0.052570000000     0.0366845  
H225     H      0.184590000000     0.974820000000     0.886920000000     0.0402709  
H226     H      0.183380000000     0.037160000000     0.888130000000     0.038783   
H227     H      0.231180000000     0.059060000000     0.916590000000     0.0425938  
H228     H      0.214100000000     0.455860000000     0.861530000000     0.0426254  
H229     H      0.231270000000     0.456530000000     0.918310000000     0.0427271  
H230     H      0.260020000000     0.476140000000     0.892660000000     0.0394369  
H231     H      0.210360000000     0.058330000000     0.861980000000     0.0427732  
H232     H      0.259020000000     0.538530000000     0.890710000000     0.03969    
H233     H      0.183540000000     0.481950000000     0.638980000000     0.0393933  
H234     H      0.184480000000     0.544090000000     0.637800000000     0.0394047  
H235     H      0.231940000000     0.062690000000     0.668070000000     0.0426795  
H236     H      0.209880000000     0.460780000000     0.612240000000     0.0426704  
H237     H      0.232170000000     0.460110000000     0.666340000000     0.0425564  
H238     H      0.259220000000     0.980860000000     0.639870000000     0.0404868  
H239     H      0.213200000000     0.063310000000     0.611770000000     0.042613   
H240     H      0.260050000000     0.043040000000     0.641790000000     0.0385758  
H241     H      0.105500000000     0.480800000000     0.719720000000     0.0369935  
H242     H      0.102830000000     0.550720000000     0.736200000000     0.0391592  
H243     H      0.055410000000     0.056620000000     0.770450000000     0.0347894  
H244     H      0.118060000000     0.458590000000     0.753540000000     0.0404613  
H245     H      0.056490000000     0.460950000000     0.742610000000     0.034734   
H246     H      0.068190000000     0.971440000000     0.782180000000     0.0368946  
H247     H      0.116980000000     0.056380000000     0.775890000000     0.0388099  
H248     H      0.069800000000     0.026870000000     0.797340000000     0.0364364  
H249     H      0.369100000000     0.490970000000     0.722860000000     0.0354327  
H250     H      0.372790000000     0.546220000000     0.738780000000     0.0351653  
H251     H      0.326500000000     0.058690000000     0.772770000000     0.0407329  
H252     H      0.386440000000     0.460720000000     0.747550000000     0.0339104  
H253     H      0.324720000000     0.461030000000     0.748920000000     0.0394818  
H254     H      0.343430000000     0.966380000000     0.786910000000     0.0402142  
H255     H      0.389050000000     0.055880000000     0.777080000000     0.033577   
H256     H      0.342800000000     0.035710000000     0.804580000000     0.0367364  
H257     H      0.070180000000     0.492660000000     0.050350000000     0.035568   
H258     H      0.068310000000     0.547710000000     0.534450000000     0.0355944  
H259     H      0.117700000000     0.060330000000     0.505070000000     0.0406372  
H260     H      0.055450000000     0.462450000000     0.024130000000     0.0343227  
H261     H      0.117260000000     0.463060000000     0.028900000000     0.0389312  
H262     H      0.102430000000     0.967580000000     0.989310000000     0.0399602  
H263     H      0.055900000000     0.057710000000     0.494950000000     0.0343952  
H264     H      0.104630000000     0.037950000000     0.471540000000     0.0369394  
H265     H      0.333860000000     0.043760000000     0.982250000000     0.0378127  
H266     H      0.337330000000     0.469230000000     0.996080000000     0.0398815  
H267     H      0.388600000000     0.462750000000     0.523610000000     0.0361357  
H268     H      0.327040000000     0.061890000000     0.019700000000     0.0394277  
H269     H      0.386510000000     0.059180000000     0.998810000000     0.0354088  
H270     H      0.380440000000     0.047380000000     0.539110000000     0.0355366  
H271     H      0.328180000000     0.464850000000     0.537150000000     0.0375806  
H272     H      0.378720000000     0.492180000000     0.552560000000     0.0377963  
H273     H      0.009410000000     0.987040000000     0.875080000000     0.0443501  
H274     H      0.940200000000     0.486090000000     0.874870000000     0.0402633  
H275     H      0.419940000000     0.524240000000     0.912060000000     0.0432367  
H276     H      0.027210000000     0.020420000000     0.855170000000     0.0410756  
H277     H      0.026260000000     0.025370000000     0.914350000000     0.0417594  
H278     H      0.506050000000     0.056210000000     0.893660000000     0.0367919  
H279     H      0.421340000000     0.516870000000     0.853900000000     0.0431821  
H280     H      0.440950000000     0.555630000000     0.891700000000     0.037563   
H281     H      0.434530000000     0.964690000000     0.642980000000     0.0363652  
H282     H      0.499620000000     0.461380000000     0.643130000000     0.0370806  
H283     H      0.023090000000     0.496710000000     0.605460000000     0.0407412  
H284     H      0.415800000000     0.997820000000     0.662610000000     0.0416852  
H285     H      0.417330000000     0.002470000000     0.603550000000     0.0395028  
H286     H      0.936220000000     0.033390000000     0.622940000000     0.0391483  
H287     H      0.021980000000     0.491090000000     0.663950000000     0.0423299  
H288     H      0.005670000000     0.530460000000     0.625110000000     0.039881   
H289     H      0.440230000000     0.382710000000     0.787500000000     0.0386242  
H290     H      0.504800000000     0.382920000000     0.787890000000     0.0384682  
H291     H      0.025990000000     0.358950000000     0.740830000000     0.0425481  
H292     H      0.419170000000     0.412210000000     0.764600000000     0.039945   
H293     H      0.419180000000     0.359420000000     0.738340000000     0.0426727  
H294     H      0.940210000000     0.388500000000     0.716790000000     0.0390514  
H295     H      0.025990000000     0.412480000000     0.766090000000     0.0390102  
H296     H      0.005470000000     0.388310000000     0.717280000000     0.0387145  
H297     H      0.437460000000     0.141160000000     0.784000000000     0.0386569  
H298     H      0.504030000000     0.140620000000     0.784200000000     0.038882   
H299     H      0.024100000000     0.102870000000     0.743060000000     0.0397577  
H300     H      0.417810000000     0.162020000000     0.752270000000     0.0426903  
H301     H      0.417730000000     0.103300000000     0.745750000000     0.0387247  
H302     H      0.937950000000     0.123670000000     0.712180000000     0.0378285  
H303     H      0.024130000000     0.161220000000     0.750290000000     0.0426281  
H304     H      0.003370000000     0.123870000000     0.712060000000     0.0378615  
H305     H      0.439330000000     0.294200000000     0.868580000000     0.0398934  
H306     H      0.004610000000     0.292820000000     0.868940000000     0.0398127  
H307     H      0.025360000000     0.245840000000     0.896780000000     0.0425483  
H308     H      0.418490000000     0.268180000000     0.841630000000     0.042686   
H309     H      0.418540000000     0.247290000000     0.896490000000     0.0426553  
H310     H      0.439710000000     0.221520000000     0.869530000000     0.0393335  
H311     H      0.025340000000     0.266790000000     0.841910000000     0.0426342  
H312     H      0.004100000000     0.220130000000     0.869820000000     0.0391808  
H313     H      0.439070000000     0.226950000000     0.619600000000     0.0398218  
H314     H      0.504430000000     0.226750000000     0.619610000000     0.0398793  
H315     H      0.025280000000     0.273500000000     0.590920000000     0.0425382  
H316     H      0.418450000000     0.253550000000     0.646130000000     0.0427434  
H317     H      0.418550000000     0.273350000000     0.590840000000     0.0426056  
H318     H      0.939420000000     0.300590000000     0.616590000000     0.0390938  
H319     H      0.025190000000     0.254480000000     0.646450000000     0.0427253  
H320     H      0.004210000000     0.300200000000     0.617050000000     0.0392933  
H321     H      0.440040000000     0.383960000000     0.951780000000     0.0388553  
H322     H      0.003770000000     0.382910000000     0.951570000000     0.0387649  
H323     H      0.024670000000     0.415130000000     0.494610000000     0.0402709  
H324     H      0.418440000000     0.358410000000     0.978620000000     0.0426513  
H325     H      0.418330000000     0.415300000000     0.995070000000     0.0401068  
H326     H      0.436990000000     0.389580000000     0.523660000000     0.0382037  
H327     H      0.024990000000     0.358070000000     0.479340000000     0.0426176  
H328     H      0.005280000000     0.390100000000     0.523380000000     0.0384107  
H329     H      0.006900000000     0.137020000000     0.981180000000     0.0395057  
H330     H      0.438230000000     0.137710000000     0.980050000000     0.0399688  
H331     H      0.418860000000     0.105350000000     0.524010000000     0.0383143  
H332     H      0.025350000000     0.162250000000     0.010320000000     0.0425912  
H333     H      0.025430000000     0.105010000000     0.025590000000     0.0388687  
H334     H      0.003770000000     0.129980000000     0.552940000000     0.0367559  
H335     H      0.419040000000     0.162530000000     0.509120000000     0.0426772  
H336     H      0.440240000000     0.130020000000     0.551770000000     0.0366209  
H337     H      0.684550000000     0.974820000000     0.886870000000     0.0402866  
H338     H      0.683360000000     0.037140000000     0.888070000000     0.038778   
H339     H      0.731160000000     0.059030000000     0.916540000000     0.0426283  
H340     H      0.714040000000     0.455830000000     0.861480000000     0.0426102  
H341     H      0.731220000000     0.456500000000     0.918260000000     0.0427219  
H342     H      0.759980000000     0.476100000000     0.892610000000     0.0394528  
H343     H      0.710340000000     0.058310000000     0.861920000000     0.0427741  
H344     H      0.759000000000     0.538500000000     0.890660000000     0.0397232  
H345     H      0.683630000000     0.481890000000     0.638930000000     0.0393797  
H346     H      0.684560000000     0.544050000000     0.637760000000     0.0394297  
H347     H      0.732010000000     0.062650000000     0.668030000000     0.042705   
H348     H      0.709990000000     0.460730000000     0.612200000000     0.0426436  
H349     H      0.732270000000     0.460070000000     0.666300000000     0.0425647  
H350     H      0.759320000000     0.980830000000     0.639830000000     0.0404975  
H351     H      0.713270000000     0.063270000000     0.611730000000     0.04262    
H352     H      0.760120000000     0.043010000000     0.641750000000     0.038593   
H353     H      0.605570000000     0.480810000000     0.719540000000     0.037001   
H354     H      0.602820000000     0.550670000000     0.736250000000     0.0392054  
H355     H      0.555450000000     0.056450000000     0.770590000000     0.0348918  
H356     H      0.618110000000     0.458510000000     0.753310000000     0.0405057  
H357     H      0.556540000000     0.460910000000     0.742280000000     0.0347666  
H358     H      0.568190000000     0.971210000000     0.781910000000     0.0368914  
H359     H      0.616990000000     0.056210000000     0.775950000000     0.0388128  
H360     H      0.569850000000     0.026570000000     0.797320000000     0.0364415  
H361     H      0.869170000000     0.490820000000     0.722960000000     0.035475   
H362     H      0.872770000000     0.546140000000     0.738610000000     0.0351699  
H363     H      0.826490000000     0.058750000000     0.772570000000     0.0407782  
H364     H      0.886520000000     0.460710000000     0.747810000000     0.0339391  
H365     H      0.824790000000     0.460990000000     0.749120000000     0.0395297  
H366     H      0.843470000000     0.966510000000     0.787100000000     0.0402265  
H367     H      0.889050000000     0.056020000000     0.776840000000     0.0335315  
H368     H      0.842810000000     0.035920000000     0.804470000000     0.0368064  
H369     H      0.570230000000     0.493010000000     0.050440000000     0.0355614  
H370     H      0.568310000000     0.547970000000     0.534250000000     0.0355535  
H371     H      0.617760000000     0.060390000000     0.504890000000     0.0406419  
H372     H      0.555470000000     0.462650000000     0.024410000000     0.0343998  
H373     H      0.617250000000     0.463230000000     0.029100000000     0.0389116  
H374     H      0.602400000000     0.967590000000     0.989490000000     0.0399342  
H375     H      0.555960000000     0.057750000000     0.494680000000     0.0344731  
H376     H      0.604710000000     0.037910000000     0.471430000000     0.0369205  
H377     H      0.833970000000     0.043760000000     0.982300000000     0.0378154  
H378     H      0.837340000000     0.469210000000     0.995790000000     0.0398491  
H379     H      0.888630000000     0.462560000000     0.523270000000     0.0361283  
H380     H      0.827080000000     0.061760000000     0.019800000000     0.0394111  
H381     H      0.886590000000     0.059150000000     0.999090000000     0.0353664  
H382     H      0.880410000000     0.047090000000     0.539300000000     0.0355443  
H383     H      0.828170000000     0.464620000000     0.536830000000     0.0376045  
H384     H      0.878720000000     0.491800000000     0.552410000000     0.0378317  
H385     H      0.509400000000     0.986040000000     0.875170000000     0.0443212  
H386     H      0.440430000000     0.484930000000     0.874980000000     0.0400708  
H387     H      0.919950000000     0.525270000000     0.912180000000     0.0432353  
H388     H      0.527250000000     0.019320000000     0.855120000000     0.0411098  
H389     H      0.526250000000     0.024570000000     0.914260000000     0.041791   
H390     H      0.006080000000     0.057110000000     0.893900000000     0.0366671  
H391     H      0.921340000000     0.518260000000     0.853950000000     0.0431399  
H392     H      0.941080000000     0.556690000000     0.891980000000     0.0375734  
H393     H      0.934630000000     0.963600000000     0.643580000000     0.0363221  
H394     H      0.999790000000     0.460450000000     0.643730000000     0.036994   
H395     H      0.523140000000     0.498210000000     0.605480000000     0.04069    
H396     H      0.915860000000     0.997000000000     0.662710000000     0.0417119  
H397     H      0.917510000000     0.000010000000     0.603670000000     0.039341   
H398     H      0.436750000000     0.034720000000     0.623830000000     0.0391716  
H399     H      0.521930000000     0.491600000000     0.663840000000     0.0428794  
H400     H      0.505700000000     0.531650000000     0.625630000000     0.0397323  
H401     H      0.940180000000     0.383290000000     0.789230000000     0.0382963  
H402     H      0.004850000000     0.383240000000     0.789310000000     0.038294   
H403     H      0.525960000000     0.358920000000     0.739260000000     0.0425881  
H404     H      0.919310000000     0.412350000000     0.765900000000     0.0399003  
H405     H      0.919280000000     0.359490000000     0.740210000000     0.0426676  
H406     H      0.440540000000     0.388860000000     0.715570000000     0.0391692  
H407     H      0.525930000000     0.412280000000     0.764830000000     0.0390545  
H408     H      0.505360000000     0.388390000000     0.715900000000     0.0387469  
H409     H      0.937040000000     0.141500000000     0.782350000000     0.0386177  
H410     H      0.004540000000     0.140930000000     0.782420000000     0.0387192  
H411     H      0.524030000000     0.103200000000     0.745440000000     0.0396462  
H412     H      0.917940000000     0.161730000000     0.749910000000     0.0425994  
H413     H      0.917540000000     0.102990000000     0.743610000000     0.0388758  
H414     H      0.437650000000     0.123470000000     0.713780000000     0.0376234  
H415     H      0.524320000000     0.161550000000     0.752860000000     0.0427253  
H416     H      0.503930000000     0.123660000000     0.713800000000     0.0378727  
H417     H      0.938990000000     0.293030000000     0.868640000000     0.0397257  
H418     H      0.504510000000     0.294200000000     0.868530000000     0.0398405  
H419     H      0.525330000000     0.247320000000     0.896440000000     0.0426329  
H420     H      0.918590000000     0.266520000000     0.842020000000     0.0426666  
H421     H      0.918640000000     0.245950000000     0.896780000000     0.0425915  
H422     H      0.939580000000     0.219910000000     0.870160000000     0.0390206  
H423     H      0.525310000000     0.268180000000     0.841560000000     0.0426693  
H424     H      0.504140000000     0.221520000000     0.869520000000     0.0393497  
H425     H      0.938590000000     0.227580000000     0.620670000000     0.039648   
H426     H      0.004500000000     0.227580000000     0.620260000000     0.039805   
H427     H      0.525310000000     0.273050000000     0.590910000000     0.0425514  
H428     H      0.918530000000     0.255200000000     0.646400000000     0.0427638  
H429     H      0.918610000000     0.273540000000     0.590870000000     0.0425187  
H430     H      0.439690000000     0.299590000000     0.617360000000     0.0394645  
H431     H      0.525220000000     0.253210000000     0.646170000000     0.0427943  
H432     H      0.504300000000     0.299400000000     0.617420000000     0.0394161  
H433     H      0.939610000000     0.382110000000     0.950750000000     0.0385545  
H434     H      0.503790000000     0.384260000000     0.952440000000     0.0389852  
H435     H      0.524740000000     0.415150000000     0.496500000000     0.0402153  
H436     H      0.918510000000     0.357880000000     0.978920000000     0.0426075  
H437     H      0.918570000000     0.415300000000     0.992500000000     0.0402391  
H438     H      0.936340000000     0.390850000000     0.522730000000     0.0379492  
H439     H      0.525040000000     0.358630000000     0.479470000000     0.0427013  
H440     H      0.505120000000     0.389320000000     0.524430000000     0.0384741  
H441     H      0.507360000000     0.138440000000     0.980490000000     0.0393582  
H442     H      0.938120000000     0.136740000000     0.980750000000     0.0400289  
H443     H      0.918880000000     0.105070000000     0.525270000000     0.0383126  
H444     H      0.525140000000     0.162770000000     0.010840000000     0.0425893  
H445     H      0.525330000000     0.105320000000     0.024170000000     0.0388858  
H446     H      0.504130000000     0.129350000000     0.552430000000     0.0365507  
H447     H      0.919020000000     0.162020000000     0.509470000000     0.0426914  
H448     H      0.940380000000     0.130160000000     0.552570000000     0.0366423  
H449     H      0.184590000000     0.474820000000     0.386920000000     0.0394796  
H450     H      0.183380000000     0.537160000000     0.388130000000     0.0394214  
H451     H      0.231180000000     0.559060000000     0.416590000000     0.0425412  
H452     H      0.214100000000     0.955860000000     0.361530000000     0.0424919  
H453     H      0.231270000000     0.956530000000     0.418310000000     0.0426348  
H454     H      0.260020000000     0.976140000000     0.392660000000     0.040345   
H455     H      0.210360000000     0.558340000000     0.361980000000     0.0426813  
H456     H      0.259020000000     0.038530000000     0.390710000000     0.0390954  
H457     H      0.183540000000     0.981950000000     0.138980000000     0.0402197  
H458     H      0.184480000000     0.044090000000     0.137800000000     0.0387235  
H459     H      0.231940000000     0.562690000000     0.168070000000     0.0426404  
H460     H      0.209880000000     0.960780000000     0.112240000000     0.0424898  
H461     H      0.232170000000     0.960110000000     0.166340000000     0.0423652  
H462     H      0.259220000000     0.480860000000     0.139870000000     0.039662   
H463     H      0.213200000000     0.563310000000     0.111770000000     0.0425903  
H464     H      0.260050000000     0.543040000000     0.141790000000     0.0392594  
H465     H      0.105500000000     0.980800000000     0.219720000000     0.0377783  
H466     H      0.102820000000     0.050720000000     0.236200000000     0.0387983  
H467     H      0.055410000000     0.556620000000     0.270450000000     0.0347288  
H468     H      0.118060000000     0.958590000000     0.253540000000     0.0403433  
H469     H      0.056490000000     0.960950000000     0.242610000000     0.0347774  
H470     H      0.068190000000     0.471450000000     0.282180000000     0.0362056  
H471     H      0.116980000000     0.556370000000     0.275890000000     0.0387758  
H472     H      0.069800000000     0.526870000000     0.297340000000     0.0372724  
H473     H      0.369100000000     0.990970000000     0.222860000000     0.0366025  
H474     H      0.372790000000     0.046220000000     0.238780000000     0.0345739  
H475     H      0.326500000000     0.558690000000     0.272770000000     0.0406689  
H476     H      0.386440000000     0.960720000000     0.247550000000     0.0339192  
H477     H      0.324720000000     0.961030000000     0.248920000000     0.0394468  
H478     H      0.343430000000     0.466380000000     0.286910000000     0.0396258  
H479     H      0.389050000000     0.555880000000     0.277080000000     0.0334889  
H480     H      0.342800000000     0.535710000000     0.304580000000     0.0372335  
H481     H      0.070180000000     0.992660000000     0.550350000000     0.0366364  
H482     H      0.068310000000     0.047710000000     0.034450000000     0.034765   
H483     H      0.117700000000     0.560330000000     0.005070000000     0.0410228  
H484     H      0.055450000000     0.962450000000     0.524130000000     0.0342506  
H485     H      0.117260000000     0.963060000000     0.528900000000     0.0389565  
H486     H      0.102430000000     0.467580000000     0.489310000000     0.0397274  
H487     H      0.055900000000     0.557710000000     0.994950000000     0.03385    
H488     H      0.104630000000     0.537950000000     0.971540000000     0.0375341  
H489     H      0.333850000000     0.543760000000     0.482250000000     0.0384122  
H490     H      0.337330000000     0.969230000000     0.496080000000     0.0407548  
H491     H      0.388600000000     0.962750000000     0.023610000000     0.0363268  
H492     H      0.327040000000     0.561880000000     0.519700000000     0.0393957  
H493     H      0.386510000000     0.559180000000     0.498810000000     0.0356177  
H494     H      0.380440000000     0.547380000000     0.039110000000     0.0359654  
H495     H      0.328180000000     0.964850000000     0.037150000000     0.037592   
H496     H      0.378720000000     0.992180000000     0.052560000000     0.0392189  
H497     H      0.009410000000     0.487040000000     0.375080000000     0.0395278  
H498     H      0.940200000000     0.986090000000     0.374870000000     0.0451236  
H499     H      0.419940000000     0.024240000000     0.412060000000     0.0420986  
H500     H      0.027210000000     0.520420000000     0.355170000000     0.0404309  
H501     H      0.026260000000     0.525370000000     0.414350000000     0.0429404  
H502     H      0.506060000000     0.556210000000     0.393660000000     0.0369893  
H503     H      0.421340000000     0.016870000000     0.353900000000     0.0438013  
H504     H      0.440950000000     0.055630000000     0.391700000000     0.0373479  
H505     H      0.434540000000     0.464700000000     0.142980000000     0.0367445  
H506     H      0.499620000000     0.961370000000     0.143130000000     0.0360694  
H507     H      0.023090000000     0.996710000000     0.105460000000     0.0465896  
H508     H      0.415800000000     0.497820000000     0.162610000000     0.0410653  
H509     H      0.417330000000     0.502470000000     0.103550000000     0.0400487  
H510     H      0.936220000000     0.533390000000     0.122950000000     0.0387606  
H511     H      0.021980000000     0.991090000000     0.163950000000     0.0422935  
H512     H      0.005670000000     0.030460000000     0.125110000000     0.0412687  
H513     H      0.440230000000     0.882710000000     0.287500000000     0.038799   
H514     H      0.504800000000     0.882920000000     0.287890000000     0.0386312  
H515     H      0.025990000000     0.858950000000     0.240830000000     0.0425885  
H516     H      0.419170000000     0.912210000000     0.264600000000     0.0401881  
H517     H      0.419180000000     0.859420000000     0.238340000000     0.0427144  
H518     H      0.940210000000     0.888500000000     0.216780000000     0.0391737  
H519     H      0.025990000000     0.912480000000     0.266090000000     0.0391942  
H520     H      0.005470000000     0.888320000000     0.217280000000     0.0388469  
H521     H      0.437460000000     0.641160000000     0.284000000000     0.038625   
H522     H      0.504030000000     0.640620000000     0.284200000000     0.0388675  
H523     H      0.024100000000     0.602870000000     0.243060000000     0.0398296  
H524     H      0.417810000000     0.662020000000     0.252270000000     0.0426846  
H525     H      0.417730000000     0.603300000000     0.245750000000     0.0387821  
H526     H      0.937940000000     0.623670000000     0.212180000000     0.0379424  
H527     H      0.024130000000     0.661220000000     0.250290000000     0.0426247  
H528     H      0.003370000000     0.623870000000     0.212060000000     0.0379902  
H529     H      0.439330000000     0.794200000000     0.368580000000     0.039932   
H530     H      0.004610000000     0.792820000000     0.368940000000     0.0398565  
H531     H      0.025360000000     0.745840000000     0.396780000000     0.0425364  
H532     H      0.418490000000     0.768180000000     0.341630000000     0.0426758  
H533     H      0.418540000000     0.747290000000     0.396490000000     0.0426575  
H534     H      0.439710000000     0.721520000000     0.369530000000     0.039314   
H535     H      0.025340000000     0.766790000000     0.341910000000     0.0426385  
H536     H      0.004100000000     0.720130000000     0.369820000000     0.03915    
H537     H      0.439060000000     0.726940000000     0.119600000000     0.0398043  
H538     H      0.504430000000     0.726750000000     0.119610000000     0.0398505  
H539     H      0.025280000000     0.773500000000     0.090920000000     0.0425692  
H540     H      0.418450000000     0.753550000000     0.146130000000     0.0427351  
H541     H      0.418550000000     0.773350000000     0.090840000000     0.0426337  
H542     H      0.939420000000     0.800590000000     0.116590000000     0.0391542  
H543     H      0.025190000000     0.754480000000     0.146450000000     0.0427098  
H544     H      0.004210000000     0.800200000000     0.117050000000     0.0393448  
H545     H      0.440040000000     0.883960000000     0.451780000000     0.0391593  
H546     H      0.003770000000     0.882920000000     0.451570000000     0.0390481  
H547     H      0.024670000000     0.915120000000     0.994610000000     0.040533   
H548     H      0.418440000000     0.858420000000     0.478620000000     0.0427842  
H549     H      0.418330000000     0.915300000000     0.495070000000     0.0404511  
H550     H      0.437000000000     0.889580000000     0.023660000000     0.0386539  
H551     H      0.024990000000     0.858070000000     0.979340000000     0.0426043  
H552     H      0.005280000000     0.890100000000     0.023380000000     0.0388792  
H553     H      0.006900000000     0.637020000000     0.481180000000     0.039791   
H554     H      0.438230000000     0.637710000000     0.480050000000     0.0402635  
H555     H      0.418860000000     0.605350000000     0.024010000000     0.0384261  
H556     H      0.025350000000     0.662260000000     0.510320000000     0.0425969  
H557     H      0.025430000000     0.605010000000     0.525590000000     0.0388162  
H558     H      0.003770000000     0.629980000000     0.052940000000     0.0368451  
H559     H      0.419040000000     0.662520000000     0.009110000000     0.0426401  
H560     H      0.440240000000     0.630020000000     0.051770000000     0.0366832  
H561     H      0.684550000000     0.474810000000     0.386870000000     0.039446   
H562     H      0.683360000000     0.537140000000     0.388070000000     0.0394215  
H563     H      0.731160000000     0.559030000000     0.416540000000     0.0425845  
H564     H      0.714040000000     0.955830000000     0.361480000000     0.0424971  
H565     H      0.731210000000     0.956500000000     0.418260000000     0.0426223  
H566     H      0.759980000000     0.976100000000     0.392600000000     0.0403469  
H567     H      0.710340000000     0.558310000000     0.361920000000     0.0427022  
H568     H      0.759000000000     0.038500000000     0.390660000000     0.0391359  
H569     H      0.683630000000     0.981890000000     0.138930000000     0.0401866  
H570     H      0.684560000000     0.044050000000     0.137760000000     0.038745   
H571     H      0.732020000000     0.562650000000     0.168030000000     0.0426725  
H572     H      0.709990000000     0.960730000000     0.112200000000     0.0424485  
H573     H      0.732270000000     0.960070000000     0.166290000000     0.0423716  
H574     H      0.759320000000     0.480830000000     0.139830000000     0.0396565  
H575     H      0.713270000000     0.563270000000     0.111730000000     0.0425962  
H576     H      0.760120000000     0.543010000000     0.141750000000     0.0392765  
H577     H      0.605580000000     0.980810000000     0.219540000000     0.0377908  
H578     H      0.602820000000     0.050670000000     0.236250000000     0.0388516  
H579     H      0.555450000000     0.556450000000     0.270590000000     0.0347993  
H580     H      0.618110000000     0.958510000000     0.253310000000     0.0403856  
H581     H      0.556530000000     0.960900000000     0.242280000000     0.0347943  
H582     H      0.568190000000     0.471210000000     0.281910000000     0.0361951  
H583     H      0.616990000000     0.556210000000     0.275950000000     0.038769   
H584     H      0.569860000000     0.526570000000     0.297320000000     0.0372522  
H585     H      0.869170000000     0.990820000000     0.222960000000     0.0366468  
H586     H      0.872770000000     0.046140000000     0.238610000000     0.034578   
H587     H      0.826490000000     0.558760000000     0.272570000000     0.0406941  
H588     H      0.886520000000     0.960710000000     0.247810000000     0.0339511  
H589     H      0.824790000000     0.960990000000     0.249120000000     0.0394869  
H590     H      0.843470000000     0.466510000000     0.287100000000     0.0396386  
H591     H      0.889050000000     0.556020000000     0.276840000000     0.0334499  
H592     H      0.842820000000     0.535920000000     0.304470000000     0.0372921  
H593     H      0.570230000000     0.993010000000     0.550440000000     0.0366253  
H594     H      0.568310000000     0.047970000000     0.034250000000     0.0347888  
H595     H      0.617760000000     0.560390000000     0.004890000000     0.0410364  
H596     H      0.555470000000     0.962650000000     0.524410000000     0.0343182  
H597     H      0.617250000000     0.963230000000     0.529100000000     0.0389345  
H598     H      0.602400000000     0.467590000000     0.489490000000     0.0396815  
H599     H      0.555960000000     0.557750000000     0.994680000000     0.0339079  
H600     H      0.604710000000     0.537910000000     0.971430000000     0.037513   
H601     H      0.833970000000     0.543760000000     0.482300000000     0.0384258  
H602     H      0.837340000000     0.969210000000     0.495790000000     0.0407201  
H603     H      0.888630000000     0.962560000000     0.023270000000     0.0363262  
H604     H      0.827080000000     0.561760000000     0.519800000000     0.0393824  
H605     H      0.886590000000     0.559150000000     0.499090000000     0.0355724  
H606     H      0.880410000000     0.547090000000     0.039300000000     0.0359736  
H607     H      0.828170000000     0.964620000000     0.036830000000     0.0376114  
H608     H      0.878720000000     0.991800000000     0.052410000000     0.0392607  
H609     H      0.509400000000     0.486040000000     0.375170000000     0.0395177  
H610     H      0.440440000000     0.984930000000     0.374980000000     0.0449356  
H611     H      0.919950000000     0.025270000000     0.412180000000     0.0420979  
H612     H      0.527250000000     0.519320000000     0.355120000000     0.0404836  
H613     H      0.526260000000     0.524580000000     0.414260000000     0.0429223  
H614     H      0.006080000000     0.557110000000     0.393900000000     0.0369066  
H615     H      0.921340000000     0.018260000000     0.353950000000     0.0437686  
H616     H      0.941080000000     0.056690000000     0.391980000000     0.0373589  
H617     H      0.934630000000     0.463600000000     0.143580000000     0.0366816  
H618     H      0.999790000000     0.960450000000     0.143730000000     0.0360025  
H619     H      0.523140000000     0.998210000000     0.105470000000     0.0465678  
H620     H      0.915860000000     0.497000000000     0.162710000000     0.0410895  
H621     H      0.917510000000     0.500010000000     0.103670000000     0.0399108  
H622     H      0.436750000000     0.534720000000     0.123830000000     0.0388202  
H623     H      0.521930000000     0.991600000000     0.163840000000     0.0428239  
H624     H      0.505700000000     0.031650000000     0.125630000000     0.0411271  
H625     H      0.940190000000     0.883290000000     0.289230000000     0.0384783  
H626     H      0.004850000000     0.883240000000     0.289310000000     0.0384424  
H627     H      0.525960000000     0.858920000000     0.239260000000     0.0426318  
H628     H      0.919310000000     0.912350000000     0.265900000000     0.0401477  
H629     H      0.919280000000     0.859490000000     0.240210000000     0.0427064  
H630     H      0.440540000000     0.888860000000     0.215560000000     0.0392913  
H631     H      0.525930000000     0.912280000000     0.264830000000     0.0392453  
H632     H      0.505360000000     0.888390000000     0.215900000000     0.0388853  
H633     H      0.937040000000     0.641500000000     0.282350000000     0.0385886  
H634     H      0.004540000000     0.640930000000     0.282420000000     0.0386858  
H635     H      0.524030000000     0.603200000000     0.245440000000     0.0397044  
H636     H      0.917940000000     0.661730000000     0.249910000000     0.0425969  
H637     H      0.917540000000     0.602990000000     0.243610000000     0.0389355  
H638     H      0.437650000000     0.623470000000     0.213780000000     0.0377469  
H639     H      0.524310000000     0.661540000000     0.252860000000     0.0427529  
H640     H      0.503930000000     0.623660000000     0.213800000000     0.037995   
H641     H      0.938990000000     0.793030000000     0.368640000000     0.0397665  
H642     H      0.504510000000     0.794200000000     0.368530000000     0.0399147  
H643     H      0.525330000000     0.747320000000     0.396440000000     0.0425915  
H644     H      0.918590000000     0.766520000000     0.342020000000     0.0426689  
H645     H      0.918640000000     0.745950000000     0.396780000000     0.0425993  
H646     H      0.939580000000     0.719920000000     0.370160000000     0.0390148  
H647     H      0.525310000000     0.768180000000     0.341560000000     0.0426884  
H648     H      0.504140000000     0.721520000000     0.369520000000     0.0392878  
H649     H      0.938590000000     0.727580000000     0.120670000000     0.039652   
H650     H      0.004500000000     0.727580000000     0.120260000000     0.0398119  
H651     H      0.525310000000     0.773050000000     0.090910000000     0.0426062  
H652     H      0.918530000000     0.755200000000     0.146400000000     0.0427619  
H653     H      0.918610000000     0.773540000000     0.090870000000     0.0425542  
H654     H      0.439690000000     0.799590000000     0.117360000000     0.0395138  
H655     H      0.525220000000     0.753210000000     0.146170000000     0.0427541  
H656     H      0.504300000000     0.799400000000     0.117420000000     0.0394933  
H657     H      0.939610000000     0.882110000000     0.450750000000     0.0388445  
H658     H      0.503790000000     0.884260000000     0.452440000000     0.0391881  
H659     H      0.524740000000     0.915150000000     0.996500000000     0.0400293  
H660     H      0.918510000000     0.857880000000     0.478920000000     0.0427522  
H661     H      0.918570000000     0.915300000000     0.492500000000     0.0405869  
H662     H      0.936350000000     0.890850000000     0.022730000000     0.0384525  
H663     H      0.525040000000     0.858620000000     0.979470000000     0.0428239  
H664     H      0.505120000000     0.889320000000     0.024430000000     0.0385043  
H665     H      0.507370000000     0.638440000000     0.480490000000     0.0396061  
H666     H      0.938120000000     0.636740000000     0.480750000000     0.0403318  
H667     H      0.918880000000     0.605070000000     0.025270000000     0.0384392  
H668     H      0.525140000000     0.662770000000     0.510840000000     0.0425543  
H669     H      0.525330000000     0.605320000000     0.524170000000     0.0388387  
H670     H      0.504130000000     0.629350000000     0.052430000000     0.0366327  
H671     H      0.919020000000     0.662020000000     0.009470000000     0.0426516  
H672     H      0.940390000000     0.630160000000     0.052570000000     0.0367233  
H673     H      0.184590000000     0.474820000000     0.886920000000     0.0394401  
H674     H      0.183380000000     0.537160000000     0.888130000000     0.0393917  
H675     H      0.231180000000     0.559060000000     0.916590000000     0.0425142  
H676     H      0.214100000000     0.955860000000     0.861530000000     0.0424916  
H677     H      0.231270000000     0.956530000000     0.918310000000     0.0425926  
H678     H      0.260020000000     0.976140000000     0.892660000000     0.040321   
H679     H      0.210360000000     0.558330000000     0.861980000000     0.0426808  
H680     H      0.259020000000     0.038530000000     0.890710000000     0.0390793  
H681     H      0.183540000000     0.981950000000     0.638980000000     0.0402037  
H682     H      0.184480000000     0.044090000000     0.637800000000     0.0387186  
H683     H      0.231940000000     0.562690000000     0.668070000000     0.0426396  
H684     H      0.209880000000     0.960770000000     0.612240000000     0.0424529  
H685     H      0.232170000000     0.960110000000     0.666340000000     0.0423622  
H686     H      0.259220000000     0.480860000000     0.639870000000     0.0396598  
H687     H      0.213200000000     0.563310000000     0.611770000000     0.0425755  
H688     H      0.260050000000     0.543040000000     0.641790000000     0.0392576  
H689     H      0.105500000000     0.980800000000     0.719720000000     0.037776   
H690     H      0.102820000000     0.050720000000     0.736200000000     0.0387974  
H691     H      0.055410000000     0.556620000000     0.770450000000     0.0346897  
H692     H      0.118060000000     0.958590000000     0.753540000000     0.0403412  
H693     H      0.056490000000     0.960950000000     0.742610000000     0.0347774  
H694     H      0.068190000000     0.471440000000     0.782180000000     0.0361955  
H695     H      0.116980000000     0.556380000000     0.775890000000     0.0387635  
H696     H      0.069800000000     0.526870000000     0.797340000000     0.0372436  
H697     H      0.369090000000     0.990970000000     0.722860000000     0.0365961  
H698     H      0.372790000000     0.046220000000     0.738780000000     0.0345741  
H699     H      0.326500000000     0.558690000000     0.772770000000     0.0406659  
H700     H      0.386440000000     0.960720000000     0.747550000000     0.0339158  
H701     H      0.324720000000     0.961040000000     0.748920000000     0.0394615  
H702     H      0.343430000000     0.466380000000     0.786910000000     0.0396122  
H703     H      0.389050000000     0.555880000000     0.777080000000     0.0334912  
H704     H      0.342800000000     0.535710000000     0.804580000000     0.0372276  
H705     H      0.070180000000     0.992660000000     0.050350000000     0.0366336  
H706     H      0.068310000000     0.047710000000     0.534450000000     0.0349462  
H707     H      0.117700000000     0.560330000000     0.505070000000     0.0405531  
H708     H      0.055450000000     0.962450000000     0.024130000000     0.034334   
H709     H      0.117260000000     0.963060000000     0.028900000000     0.0389527  
H710     H      0.102430000000     0.467580000000     0.989310000000     0.0393704  
H711     H      0.055900000000     0.557710000000     0.494950000000     0.0343398  
H712     H      0.104630000000     0.537950000000     0.471540000000     0.0373666  
H713     H      0.333850000000     0.543760000000     0.982250000000     0.0380859  
H714     H      0.337330000000     0.969230000000     0.996080000000     0.040396   
H715     H      0.388600000000     0.962750000000     0.523610000000     0.036194   
H716     H      0.327040000000     0.561890000000     0.019700000000     0.0393443  
H717     H      0.386510000000     0.559180000000     0.998810000000     0.0353102  
H718     H      0.380440000000     0.547380000000     0.539110000000     0.0360143  
H719     H      0.328180000000     0.964850000000     0.537150000000     0.0376554  
H720     H      0.378720000000     0.992180000000     0.552560000000     0.0391798  
H721     H      0.009410000000     0.487040000000     0.875080000000     0.0395208  
H722     H      0.940200000000     0.986090000000     0.874870000000     0.045095   
H723     H      0.419940000000     0.024240000000     0.912060000000     0.0420588  
H724     H      0.027210000000     0.520420000000     0.855170000000     0.0404216  
H725     H      0.026260000000     0.525370000000     0.914350000000     0.0429129  
H726     H      0.506060000000     0.556210000000     0.893660000000     0.0369788  
H727     H      0.421340000000     0.016870000000     0.853900000000     0.0437928  
H728     H      0.440950000000     0.055630000000     0.891700000000     0.0373145  
H729     H      0.434540000000     0.464700000000     0.642980000000     0.0367448  
H730     H      0.499620000000     0.961370000000     0.643130000000     0.0360894  
H731     H      0.023090000000     0.996700000000     0.605460000000     0.0465707  
H732     H      0.415800000000     0.497820000000     0.662610000000     0.0410677  
H733     H      0.417330000000     0.502470000000     0.603550000000     0.0400375  
H734     H      0.936210000000     0.533390000000     0.622940000000     0.038747   
H735     H      0.021980000000     0.991090000000     0.663950000000     0.0422958  
H736     H      0.005670000000     0.030460000000     0.625110000000     0.0412568  
H737     H      0.440230000000     0.882710000000     0.787500000000     0.038793   
H738     H      0.504800000000     0.882920000000     0.787890000000     0.0386271  
H739     H      0.025990000000     0.858950000000     0.740830000000     0.0425988  
H740     H      0.419170000000     0.912210000000     0.764600000000     0.0401824  
H741     H      0.419180000000     0.859420000000     0.738340000000     0.042719   
H742     H      0.940210000000     0.888500000000     0.716790000000     0.0391902  
H743     H      0.025990000000     0.912480000000     0.766090000000     0.0391895  
H744     H      0.005470000000     0.888310000000     0.717280000000     0.0388571  
H745     H      0.437460000000     0.641160000000     0.784000000000     0.0386189  
H746     H      0.504040000000     0.640620000000     0.784200000000     0.0388316  
H747     H      0.024100000000     0.602870000000     0.743060000000     0.0398291  
H748     H      0.417810000000     0.662020000000     0.752270000000     0.0426767  
H749     H      0.417730000000     0.603300000000     0.745750000000     0.0387813  
H750     H      0.937940000000     0.623660000000     0.712180000000     0.037946   
H751     H      0.024130000000     0.661230000000     0.750290000000     0.0426225  
H752     H      0.003370000000     0.623870000000     0.712060000000     0.0379901  
H753     H      0.439330000000     0.794200000000     0.868580000000     0.0399284  
H754     H      0.004610000000     0.792820000000     0.868940000000     0.0398532  
H755     H      0.025360000000     0.745850000000     0.896780000000     0.0425134  
H756     H      0.418490000000     0.768180000000     0.841630000000     0.0426725  
H757     H      0.418540000000     0.747290000000     0.896490000000     0.0426367  
H758     H      0.439710000000     0.721520000000     0.869530000000     0.0392998  
H759     H      0.025340000000     0.766790000000     0.841910000000     0.0426331  
H760     H      0.004100000000     0.720130000000     0.869820000000     0.0391342  
H761     H      0.439060000000     0.726950000000     0.619600000000     0.0398087  
H762     H      0.504430000000     0.726750000000     0.619610000000     0.0398468  
H763     H      0.025280000000     0.773500000000     0.590920000000     0.0425367  
H764     H      0.418450000000     0.753550000000     0.646130000000     0.0427331  
H765     H      0.418550000000     0.773350000000     0.590840000000     0.0425951  
H766     H      0.939420000000     0.800590000000     0.616590000000     0.0391478  
H767     H      0.025190000000     0.754480000000     0.646450000000     0.0427071  
H768     H      0.004210000000     0.800200000000     0.617050000000     0.0393274  
H769     H      0.440040000000     0.883960000000     0.951780000000     0.039128   
H770     H      0.003770000000     0.882910000000     0.951570000000     0.0390207  
H771     H      0.024670000000     0.915120000000     0.494610000000     0.0405603  
H772     H      0.418440000000     0.858410000000     0.978620000000     0.0427165  
H773     H      0.418330000000     0.915300000000     0.995070000000     0.0403914  
H774     H      0.437000000000     0.889590000000     0.523660000000     0.0383771  
H775     H      0.024990000000     0.858070000000     0.479340000000     0.0426792  
H776     H      0.005280000000     0.890100000000     0.523380000000     0.0385624  
H777     H      0.006900000000     0.637020000000     0.981180000000     0.0394575  
H778     H      0.438230000000     0.637710000000     0.980050000000     0.0399291  
H779     H      0.418860000000     0.605350000000     0.524010000000     0.0383292  
H780     H      0.025350000000     0.662250000000     0.010320000000     0.0425638  
H781     H      0.025430000000     0.605010000000     0.025590000000     0.0389185  
H782     H      0.003770000000     0.629980000000     0.552940000000     0.0368158  
H783     H      0.419040000000     0.662530000000     0.509120000000     0.0426617  
H784     H      0.440240000000     0.630020000000     0.551770000000     0.0366597  
H785     H      0.684550000000     0.474820000000     0.886870000000     0.0394346  
H786     H      0.683360000000     0.537140000000     0.888070000000     0.0394109  
H787     H      0.731160000000     0.559030000000     0.916540000000     0.042546   
H788     H      0.714040000000     0.955830000000     0.861480000000     0.0424851  
H789     H      0.731220000000     0.956500000000     0.918260000000     0.0425926  
H790     H      0.759980000000     0.976100000000     0.892610000000     0.0403289  
H791     H      0.710340000000     0.558310000000     0.861920000000     0.0427023  
H792     H      0.759000000000     0.038500000000     0.890660000000     0.0391091  
H793     H      0.683630000000     0.981890000000     0.638930000000     0.0401911  
H794     H      0.684560000000     0.044050000000     0.637760000000     0.0387378  
H795     H      0.732010000000     0.562650000000     0.668030000000     0.0426636  
H796     H      0.709990000000     0.960730000000     0.612200000000     0.0424424  
H797     H      0.732280000000     0.960080000000     0.666300000000     0.0423853  
H798     H      0.759320000000     0.480830000000     0.639830000000     0.0396613  
H799     H      0.713270000000     0.563270000000     0.611730000000     0.042587   
H800     H      0.760120000000     0.543010000000     0.641750000000     0.0392624  
H801     H      0.605570000000     0.980810000000     0.719540000000     0.0377865  
H802     H      0.602820000000     0.050670000000     0.736250000000     0.0388435  
H803     H      0.555450000000     0.556450000000     0.770590000000     0.0347991  
H804     H      0.618110000000     0.958510000000     0.753310000000     0.0403904  
H805     H      0.556530000000     0.960900000000     0.742280000000     0.0347905  
H806     H      0.568190000000     0.471210000000     0.781910000000     0.0361974  
H807     H      0.616990000000     0.556210000000     0.775950000000     0.0387718  
H808     H      0.569850000000     0.526570000000     0.797320000000     0.0372512  
H809     H      0.869170000000     0.990830000000     0.722960000000     0.0366447  
H810     H      0.872760000000     0.046140000000     0.738610000000     0.0345762  
H811     H      0.826490000000     0.558750000000     0.772570000000     0.0407056  
H812     H      0.886520000000     0.960710000000     0.747810000000     0.0339483  
H813     H      0.824790000000     0.960990000000     0.749120000000     0.0394913  
H814     H      0.843470000000     0.466510000000     0.787100000000     0.0396358  
H815     H      0.889050000000     0.556020000000     0.776840000000     0.0334439  
H816     H      0.842820000000     0.535920000000     0.804470000000     0.0372954  
H817     H      0.570220000000     0.993010000000     0.050440000000     0.0366337  
H818     H      0.568310000000     0.047970000000     0.534250000000     0.0349689  
H819     H      0.617760000000     0.560390000000     0.504890000000     0.0405958  
H820     H      0.555470000000     0.962650000000     0.024410000000     0.0344132  
H821     H      0.617250000000     0.963230000000     0.029100000000     0.0388972  
H822     H      0.602400000000     0.467590000000     0.989490000000     0.0393789  
H823     H      0.555960000000     0.557750000000     0.494680000000     0.034351   
H824     H      0.604700000000     0.537910000000     0.471430000000     0.0373792  
H825     H      0.833970000000     0.543760000000     0.982300000000     0.0381264  
H826     H      0.837330000000     0.969210000000     0.995790000000     0.0403749  
H827     H      0.888620000000     0.962560000000     0.523270000000     0.0362214  
H828     H      0.827080000000     0.561760000000     0.019800000000     0.0393697  
H829     H      0.886590000000     0.559150000000     0.999090000000     0.0352531  
H830     H      0.880410000000     0.547090000000     0.539300000000     0.0360338  
H831     H      0.828170000000     0.964620000000     0.536830000000     0.0376623  
H832     H      0.878720000000     0.991800000000     0.552410000000     0.0392475  
H833     H      0.509400000000     0.486040000000     0.875170000000     0.0394929  
H834     H      0.440430000000     0.984930000000     0.874980000000     0.0448984  
H835     H      0.919950000000     0.025270000000     0.912180000000     0.0420648  
H836     H      0.527260000000     0.519320000000     0.855120000000     0.040454   
H837     H      0.526250000000     0.524570000000     0.914260000000     0.0429169  
H838     H      0.006080000000     0.557110000000     0.893900000000     0.036888   
H839     H      0.921340000000     0.018260000000     0.853950000000     0.0437621  
H840     H      0.941080000000     0.056690000000     0.891980000000     0.0373357  
H841     H      0.934630000000     0.463600000000     0.643580000000     0.0366781  
H842     H      0.999790000000     0.960450000000     0.643730000000     0.0360014  
H843     H      0.523140000000     0.998210000000     0.605480000000     0.0465433  
H844     H      0.915860000000     0.497000000000     0.662710000000     0.0410921  
H845     H      0.917510000000     0.500010000000     0.603670000000     0.0399023  
H846     H      0.436750000000     0.534720000000     0.623830000000     0.0388043  
H847     H      0.521930000000     0.991600000000     0.663840000000     0.0428444  
H848     H      0.505700000000     0.031650000000     0.625630000000     0.0411093  
H849     H      0.940180000000     0.883290000000     0.789230000000     0.0384648  
H850     H      0.004850000000     0.883240000000     0.789310000000     0.0384404  
H851     H      0.525960000000     0.858920000000     0.739260000000     0.0426295  
H852     H      0.919310000000     0.912350000000     0.765900000000     0.0401375  
H853     H      0.919280000000     0.859490000000     0.740210000000     0.0427163  
H854     H      0.440540000000     0.888860000000     0.715570000000     0.0393049  
H855     H      0.525930000000     0.912280000000     0.764830000000     0.0392425  
H856     H      0.505360000000     0.888390000000     0.715900000000     0.038882   
H857     H      0.937040000000     0.641500000000     0.782350000000     0.0385804  
H858     H      0.004540000000     0.640930000000     0.782420000000     0.0386759  
H859     H      0.524030000000     0.603200000000     0.745440000000     0.0397112  
H860     H      0.917940000000     0.661730000000     0.749910000000     0.0425927  
H861     H      0.917540000000     0.602990000000     0.743610000000     0.0389353  
H862     H      0.437650000000     0.623470000000     0.713780000000     0.0377455  
H863     H      0.524320000000     0.661550000000     0.752860000000     0.0427156  
H864     H      0.503930000000     0.623660000000     0.713800000000     0.0380003  
H865     H      0.938990000000     0.793030000000     0.868640000000     0.0397608  
H866     H      0.504510000000     0.794200000000     0.868530000000     0.0399113  
H867     H      0.525330000000     0.747320000000     0.896440000000     0.0425693  
H868     H      0.918590000000     0.766530000000     0.842020000000     0.0426605  
H869     H      0.918640000000     0.745950000000     0.896780000000     0.0425771  
H870     H      0.939580000000     0.719920000000     0.870160000000     0.0390056  
H871     H      0.525310000000     0.768180000000     0.841560000000     0.0426891  
H872     H      0.504140000000     0.721520000000     0.869520000000     0.0392734  
H873     H      0.938590000000     0.727580000000     0.620670000000     0.0396003  
H874     H      0.004500000000     0.727580000000     0.620260000000     0.0398013  
H875     H      0.525310000000     0.773050000000     0.590910000000     0.0425791  
H876     H      0.918520000000     0.755200000000     0.646400000000     0.0426944  
H877     H      0.918610000000     0.773540000000     0.590870000000     0.0425366  
H878     H      0.439690000000     0.799590000000     0.617360000000     0.0394955  
H879     H      0.525210000000     0.753210000000     0.646170000000     0.0427634  
H880     H      0.504300000000     0.799400000000     0.617420000000     0.0394845  
H881     H      0.939610000000     0.882110000000     0.950750000000     0.0388082  
H882     H      0.503790000000     0.884260000000     0.952440000000     0.0392568  
H883     H      0.524740000000     0.915150000000     0.496500000000     0.0404935  
H884     H      0.918510000000     0.857880000000     0.978920000000     0.04267    
H885     H      0.918570000000     0.915300000000     0.992500000000     0.0405683  
H886     H      0.936350000000     0.890850000000     0.522730000000     0.0381335  
H887     H      0.525040000000     0.858630000000     0.479470000000     0.0427837  
H888     H      0.505120000000     0.889320000000     0.524430000000     0.038611   
H889     H      0.507360000000     0.638440000000     0.980490000000     0.0393142  
H890     H      0.938120000000     0.636740000000     0.980750000000     0.0399928  
H891     H      0.918880000000     0.605070000000     0.525270000000     0.0383365  
H892     H      0.525140000000     0.662770000000     0.010840000000     0.0425702  
H893     H      0.525330000000     0.605320000000     0.024170000000     0.038922   
H894     H      0.504130000000     0.629350000000     0.552430000000     0.0366186  
H895     H      0.919020000000     0.662020000000     0.509470000000     0.0426825  
H896     H      0.940390000000     0.630160000000     0.552570000000     0.0366938  
N1       N      0.232250000000     0.007810000000     0.420730000000    -0.168556   
N2       N      0.211270000000     0.507000000000     0.358460000000    -0.16714    
N3       N      0.232910000000     0.511380000000     0.170460000000    -0.167603   
N4       N      0.210740000000     0.012120000000     0.108750000000    -0.168986   
N5       N      0.053060000000     0.509700000000     0.252970000000    -0.225279   
N6       N      0.122600000000     0.509370000000     0.257120000000    -0.16771    
N7       N      0.321410000000     0.507980000000     0.268620000000    -0.167279   
N8       N      0.390790000000     0.507280000000     0.265500000000    -0.227766   
N9       N      0.122390000000     0.009560000000     0.008800000000    -0.168736   
N10      N      0.053030000000     0.009040000000     0.005870000000    -0.229079   
N11      N      0.389920000000     0.009990000000     0.506780000000    -0.225454   
N12      N      0.321230000000     0.011390000000     0.518230000000    -0.169165   
N13      N      0.472980000000     0.525310000000     0.416850000000    -0.176828   
N14      N      0.974520000000     0.515200000000     0.350920000000    -0.176391   
N15      N      0.970500000000     0.502710000000     0.100790000000    -0.175408   
N16      N      0.468670000000     0.493830000000     0.166920000000    -0.175837   
N17      N      0.972600000000     0.355960000000     0.238940000000    -0.16555    
N18      N      0.972630000000     0.415760000000     0.267070000000    -0.180321   
N19      N      0.470850000000     0.099620000000     0.244130000000    -0.181004   
N20      N      0.971040000000     0.165150000000     0.252600000000    -0.165181   
N21      N      0.971960000000     0.245290000000     0.400130000000    -0.166686   
N22      N      0.971910000000     0.268200000000     0.338720000000    -0.166614   
N23      N      0.971910000000     0.274320000000     0.087520000000    -0.166338   
N24      N      0.971800000000     0.253100000000     0.149700000000    -0.166187   
N25      N      0.971470000000     0.418240000000     0.997690000000    -0.1805     
N26      N      0.971710000000     0.354500000000     0.478870000000    -0.165329   
N27      N      0.472140000000     0.101890000000     0.524040000000    -0.180779   
N28      N      0.472230000000     0.165690000000     0.005700000000    -0.165322   
N29      N      0.732230000000     0.007790000000     0.420680000000    -0.168567   
N30      N      0.711240000000     0.506980000000     0.358410000000    -0.16713    
N31      N      0.732990000000     0.511340000000     0.170420000000    -0.167578   
N32      N      0.710820000000     0.012080000000     0.108710000000    -0.168948   
N33      N      0.553090000000     0.509610000000     0.252880000000    -0.225293   
N34      N      0.622630000000     0.509270000000     0.257030000000    -0.167688   
N35      N      0.821430000000     0.508020000000     0.268620000000    -0.16728    
N36      N      0.890810000000     0.507360000000     0.265540000000    -0.227675   
N37      N      0.622410000000     0.009640000000     0.008800000000    -0.168686   
N38      N      0.553040000000     0.009140000000     0.005870000000    -0.229459   
N39      N      0.889950000000     0.009910000000     0.506750000000    -0.225382   
N40      N      0.821260000000     0.011270000000     0.518140000000    -0.169222   
N41      N      0.972990000000     0.526130000000     0.416960000000    -0.176351   
N42      N      0.474560000000     0.514140000000     0.350890000000    -0.176615   
N43      N      0.470530000000     0.504320000000     0.100850000000    -0.17581    
N44      N      0.968730000000     0.493130000000     0.167070000000    -0.175708   
N45      N      0.472570000000     0.355880000000     0.237450000000    -0.165852   
N46      N      0.472560000000     0.415560000000     0.265850000000    -0.180525   
N47      N      0.970790000000     0.099390000000     0.242380000000    -0.180586   
N48      N      0.471060000000     0.165380000000     0.254470000000    -0.165274   
N49      N      0.471940000000     0.246630000000     0.399800000000    -0.166802   
N50      N      0.471890000000     0.269480000000     0.338330000000    -0.166685   
N51      N      0.471930000000     0.274020000000     0.087520000000    -0.166478   
N52      N      0.471820000000     0.251930000000     0.149440000000    -0.166314   
N53      N      0.471480000000     0.418220000000     0.999370000000    -0.181402   
N54      N      0.471740000000     0.355070000000     0.478960000000    -0.165731   
N55      N      0.972170000000     0.101600000000     0.525120000000    -0.180528   
N56      N      0.972220000000     0.165110000000     0.005850000000    -0.164983   
N57      N      0.232250000000     0.007810000000     0.920730000000    -0.168622   
N58      N      0.211270000000     0.507010000000     0.858460000000    -0.167158   
N59      N      0.232910000000     0.511380000000     0.670460000000    -0.167556   
N60      N      0.210740000000     0.012120000000     0.608750000000    -0.168988   
N61      N      0.053060000000     0.509700000000     0.752970000000    -0.225296   
N62      N      0.122600000000     0.509370000000     0.757120000000    -0.167707   
N63      N      0.321410000000     0.507980000000     0.768620000000    -0.167283   
N64      N      0.390790000000     0.507280000000     0.765500000000    -0.227742   
N65      N      0.122390000000     0.009560000000     0.508800000000    -0.168952   
N66      N      0.053030000000     0.009040000000     0.505870000000    -0.229041   
N67      N      0.389910000000     0.009990000000     0.006780000000    -0.225424   
N68      N      0.321230000000     0.011390000000     0.018230000000    -0.169232   
N69      N      0.472980000000     0.525300000000     0.916850000000    -0.176862   
N70      N      0.974520000000     0.515200000000     0.850920000000    -0.176396   
N71      N      0.970490000000     0.502710000000     0.600790000000    -0.175321   
N72      N      0.468670000000     0.493830000000     0.666920000000    -0.175829   
N73      N      0.972600000000     0.355960000000     0.738940000000    -0.165544   
N74      N      0.972630000000     0.415760000000     0.767070000000    -0.180323   
N75      N      0.470850000000     0.099620000000     0.744130000000    -0.181005   
N76      N      0.971040000000     0.165150000000     0.752600000000    -0.165181   
N77      N      0.971960000000     0.245290000000     0.900130000000    -0.166679   
N78      N      0.971910000000     0.268200000000     0.838720000000    -0.166615   
N79      N      0.971910000000     0.274320000000     0.587520000000    -0.166371   
N80      N      0.971800000000     0.253100000000     0.649700000000    -0.166126   
N81      N      0.971470000000     0.418250000000     0.497690000000    -0.180479   
N82      N      0.971710000000     0.354500000000     0.978870000000    -0.165373   
N83      N      0.472140000000     0.101890000000     0.024040000000    -0.18073    
N84      N      0.472230000000     0.165690000000     0.505700000000    -0.165286   
N85      N      0.732230000000     0.007790000000     0.920680000000    -0.168588   
N86      N      0.711240000000     0.506980000000     0.858410000000    -0.167124   
N87      N      0.732990000000     0.511350000000     0.670420000000    -0.167537   
N88      N      0.710820000000     0.012080000000     0.608710000000    -0.168941   
N89      N      0.553080000000     0.509610000000     0.752880000000    -0.225395   
N90      N      0.622630000000     0.509270000000     0.757040000000    -0.167699   
N91      N      0.821430000000     0.508020000000     0.768620000000    -0.167267   
N92      N      0.890810000000     0.507360000000     0.765540000000    -0.227675   
N93      N      0.622410000000     0.009640000000     0.508800000000    -0.168882   
N94      N      0.553040000000     0.009140000000     0.505870000000    -0.229403   
N95      N      0.889950000000     0.009910000000     0.006750000000    -0.225339   
N96      N      0.821260000000     0.011270000000     0.018140000000    -0.169291   
N97      N      0.972990000000     0.526130000000     0.916960000000    -0.176352   
N98      N      0.474560000000     0.514140000000     0.850890000000    -0.176621   
N99      N      0.470520000000     0.504310000000     0.600850000000    -0.175811   
N100     N      0.968730000000     0.493130000000     0.667070000000    -0.175711   
N101     N      0.472570000000     0.355880000000     0.737450000000    -0.165843   
N102     N      0.472560000000     0.415560000000     0.765850000000    -0.180536   
N103     N      0.970790000000     0.099390000000     0.742380000000    -0.180586   
N104     N      0.471060000000     0.165380000000     0.754470000000    -0.165275   
N105     N      0.471940000000     0.246630000000     0.899800000000    -0.166784   
N106     N      0.471900000000     0.269480000000     0.838330000000    -0.166691   
N107     N      0.471940000000     0.274020000000     0.587520000000    -0.166511   
N108     N      0.471820000000     0.251930000000     0.649440000000    -0.166317   
N109     N      0.471480000000     0.418220000000     0.499370000000    -0.180972   
N110     N      0.471740000000     0.355070000000     0.978960000000    -0.165663   
N111     N      0.972170000000     0.101600000000     0.025130000000    -0.180457   
N112     N      0.972220000000     0.165110000000     0.505850000000    -0.164931   
N113     N      0.232250000000     0.507810000000     0.420730000000    -0.16717    
N114     N      0.211270000000     0.007000000000     0.358460000000    -0.168647   
N115     N      0.232910000000     0.011380000000     0.170460000000    -0.169031   
N116     N      0.210740000000     0.512120000000     0.108750000000    -0.16751    
N117     N      0.053060000000     0.009700000000     0.252970000000    -0.227254   
N118     N      0.122600000000     0.009370000000     0.257120000000    -0.16914    
N119     N      0.321410000000     0.007980000000     0.268620000000    -0.168723   
N120     N      0.390790000000     0.007280000000     0.265500000000    -0.229803   
N121     N      0.122390000000     0.509560000000     0.008800000000    -0.167311   
N122     N      0.053030000000     0.509040000000     0.005870000000    -0.227089   
N123     N      0.389910000000     0.509990000000     0.506780000000    -0.223493   
N124     N      0.321230000000     0.511390000000     0.518230000000    -0.167782   
N125     N      0.472980000000     0.025300000000     0.416850000000    -0.17755    
N126     N      0.974520000000     0.015200000000     0.350920000000    -0.175332   
N127     N      0.970490000000     0.002710000000     0.100790000000    -0.174336   
N128     N      0.468670000000     0.993830000000     0.166920000000    -0.177931   
N129     N      0.972600000000     0.855960000000     0.238940000000    -0.165542   
N130     N      0.972630000000     0.915760000000     0.267070000000    -0.180016   
N131     N      0.470850000000     0.599620000000     0.244130000000    -0.181061   
N132     N      0.971040000000     0.665150000000     0.252600000000    -0.165188   
N133     N      0.971960000000     0.745290000000     0.400130000000    -0.166649   
N134     N      0.971910000000     0.768190000000     0.338720000000    -0.16662    
N135     N      0.971910000000     0.774320000000     0.087520000000    -0.166349   
N136     N      0.971800000000     0.753100000000     0.149700000000    -0.166165   
N137     N      0.971470000000     0.918250000000     0.997690000000    -0.180229   
N138     N      0.971710000000     0.854500000000     0.478870000000    -0.16531    
N139     N      0.472140000000     0.601890000000     0.524040000000    -0.180871   
N140     N      0.472230000000     0.665690000000     0.005700000000    -0.165367   
N141     N      0.732230000000     0.507790000000     0.420680000000    -0.167124   
N142     N      0.711240000000     0.006980000000     0.358410000000    -0.168568   
N143     N      0.732990000000     0.011350000000     0.170420000000    -0.169052   
N144     N      0.710820000000     0.512080000000     0.108710000000    -0.167462   
N145     N      0.553080000000     0.009610000000     0.252880000000    -0.22736    
N146     N      0.622630000000     0.009270000000     0.257030000000    -0.169121   
N147     N      0.821430000000     0.008020000000     0.268620000000    -0.16871    
N148     N      0.890810000000     0.007360000000     0.265540000000    -0.229737   
N149     N      0.622410000000     0.509640000000     0.008800000000    -0.167247   
N150     N      0.553050000000     0.509140000000     0.005870000000    -0.227388   
N151     N      0.889950000000     0.509910000000     0.506750000000    -0.223429   
N152     N      0.821260000000     0.511270000000     0.518140000000    -0.167792   
N153     N      0.972990000000     0.026130000000     0.416960000000    -0.177056   
N154     N      0.474560000000     0.014140000000     0.350890000000    -0.17556    
N155     N      0.470520000000     0.004320000000     0.100850000000    -0.174736   
N156     N      0.968730000000     0.993130000000     0.167070000000    -0.177791   
N157     N      0.472570000000     0.855880000000     0.237450000000    -0.165836   
N158     N      0.472560000000     0.915560000000     0.265850000000    -0.180225   
N159     N      0.970790000000     0.599390000000     0.242380000000    -0.180634   
N160     N      0.471060000000     0.665380000000     0.254470000000    -0.16528    
N161     N      0.471940000000     0.746630000000     0.399800000000    -0.166812   
N162     N      0.471890000000     0.769480000000     0.338330000000    -0.166723   
N163     N      0.471930000000     0.774020000000     0.087520000000    -0.166472   
N164     N      0.471820000000     0.751930000000     0.149440000000    -0.166343   
N165     N      0.471470000000     0.918220000000     0.999370000000    -0.181046   
N166     N      0.471740000000     0.855060000000     0.478960000000    -0.165738   
N167     N      0.972170000000     0.601600000000     0.525120000000    -0.18062    
N168     N      0.972220000000     0.665110000000     0.005850000000    -0.165096   
N169     N      0.232250000000     0.507810000000     0.920730000000    -0.167142   
N170     N      0.211270000000     0.007000000000     0.858460000000    -0.168596   
N171     N      0.232910000000     0.011380000000     0.670460000000    -0.169028   
N172     N      0.210740000000     0.512120000000     0.608750000000    -0.16751    
N173     N      0.053060000000     0.009700000000     0.752970000000    -0.227248   
N174     N      0.122600000000     0.009370000000     0.757120000000    -0.169137   
N175     N      0.321410000000     0.007980000000     0.768620000000    -0.168717   
N176     N      0.390790000000     0.007280000000     0.765500000000    -0.2298     
N177     N      0.122390000000     0.509570000000     0.508800000000    -0.167497   
N178     N      0.053030000000     0.509040000000     0.505870000000    -0.227046   
N179     N      0.389910000000     0.509990000000     0.006780000000    -0.223482   
N180     N      0.321230000000     0.511390000000     0.018230000000    -0.167806   
N181     N      0.472970000000     0.025300000000     0.916850000000    -0.17758    
N182     N      0.974520000000     0.015200000000     0.850920000000    -0.175338   
N183     N      0.970500000000     0.002710000000     0.600790000000    -0.17426    
N184     N      0.468670000000     0.993830000000     0.666920000000    -0.177912   
N185     N      0.972600000000     0.855960000000     0.738940000000    -0.165489   
N186     N      0.972630000000     0.915760000000     0.767070000000    -0.180021   
N187     N      0.470850000000     0.599620000000     0.744130000000    -0.181055   
N188     N      0.971040000000     0.665150000000     0.752600000000    -0.165192   
N189     N      0.971960000000     0.745290000000     0.900130000000    -0.166694   
N190     N      0.971910000000     0.768190000000     0.838720000000    -0.166614   
N191     N      0.971910000000     0.774320000000     0.587520000000    -0.166362   
N192     N      0.971800000000     0.753100000000     0.649700000000    -0.166195   
N193     N      0.971470000000     0.918240000000     0.497690000000    -0.180008   
N194     N      0.971710000000     0.854500000000     0.978870000000    -0.16536    
N195     N      0.472140000000     0.601890000000     0.024040000000    -0.180876   
N196     N      0.472230000000     0.665690000000     0.505700000000    -0.165311   
N197     N      0.732230000000     0.507790000000     0.920680000000    -0.167149   
N198     N      0.711230000000     0.006980000000     0.858410000000    -0.168562   
N199     N      0.732990000000     0.011350000000     0.670420000000    -0.169043   
N200     N      0.710820000000     0.512080000000     0.608710000000    -0.167464   
N201     N      0.553080000000     0.009610000000     0.752880000000    -0.227358   
N202     N      0.622630000000     0.009270000000     0.757040000000    -0.169119   
N203     N      0.821430000000     0.008020000000     0.768620000000    -0.168713   
N204     N      0.890810000000     0.007360000000     0.765540000000    -0.229738   
N205     N      0.622410000000     0.509640000000     0.508800000000    -0.167445   
N206     N      0.553040000000     0.509150000000     0.505870000000    -0.227441   
N207     N      0.889950000000     0.509910000000     0.006750000000    -0.223415   
N208     N      0.821260000000     0.511270000000     0.018140000000    -0.167855   
N209     N      0.972990000000     0.026130000000     0.916960000000    -0.177124   
N210     N      0.474560000000     0.014140000000     0.850890000000    -0.175561   
N211     N      0.470530000000     0.004320000000     0.600850000000    -0.174745   
N212     N      0.968730000000     0.993130000000     0.667070000000    -0.177791   
N213     N      0.472570000000     0.855880000000     0.737450000000    -0.165835   
N214     N      0.472560000000     0.915560000000     0.765850000000    -0.180228   
N215     N      0.970790000000     0.599390000000     0.742380000000    -0.180634   
N216     N      0.471060000000     0.665370000000     0.754470000000    -0.165212   
N217     N      0.471940000000     0.746630000000     0.899800000000    -0.166816   
N218     N      0.471890000000     0.769480000000     0.838330000000    -0.16668    
N219     N      0.471930000000     0.774020000000     0.587520000000    -0.166494   
N220     N      0.471820000000     0.751930000000     0.649440000000    -0.166333   
N221     N      0.471480000000     0.918220000000     0.499370000000    -0.180648   
N222     N      0.471740000000     0.855070000000     0.978960000000    -0.165687   
N223     N      0.972170000000     0.601600000000     0.025130000000    -0.180551   
N224     N      0.972220000000     0.665110000000     0.505850000000    -0.16494    
O1       O      0.999440000000     0.267310000000     0.040860000000    -0.399782   
O2       O      0.999470000000     0.252740000000     0.446700000000    -0.400371   
O3       O      0.999310000000     0.307580000000     0.486500000000    -0.398377   
O4       O      0.999620000000     0.212510000000     0.000760000000    -0.397927   
O5       O      0.444600000000     0.212930000000     0.000390000000    -0.39875    
O6       O      0.444310000000     0.308040000000     0.486490000000    -0.398992   
O7       O      0.444440000000     0.253440000000     0.446480000000    -0.400641   
O8       O      0.444440000000     0.267510000000     0.040750000000    -0.399984   
O9       O      0.999310000000     0.256520000000     0.196780000000    -0.399936   
O10      O      0.999380000000     0.264120000000     0.291730000000    -0.400637   
O11      O      0.998900000000     0.212370000000     0.248120000000    -0.398288   
O12      O      0.999760000000     0.308220000000     0.240740000000    -0.398613   
O13      O      0.444740000000     0.308530000000     0.239710000000    -0.399158   
O14      O      0.443900000000     0.212800000000     0.248530000000    -0.398707   
O15      O      0.444350000000     0.265160000000     0.291370000000    -0.400625   
O16      O      0.444310000000     0.256200000000     0.196470000000    -0.399975   
O17      O      0.444460000000     0.465690000000     0.002700000000    -0.48685    
O18      O      0.444950000000     0.055400000000     0.514610000000    -0.481008   
O19      O      0.444660000000     0.017560000000     0.463140000000    -0.47134    
O20      O      0.444240000000     0.506470000000     0.053030000000    -0.47276    
O21      O      0.998880000000     0.004890000000     0.053850000000    -0.46851    
O22      O      0.999040000000     0.017980000000     0.464190000000    -0.475341   
O23      O      0.999280000000     0.054800000000     0.516950000000    -0.480425   
O24      O      0.998660000000     0.465380000000     0.003240000000    -0.486991   
O25      O      0.445300000000     0.462850000000     0.262370000000    -0.482413   
O26      O      0.443810000000     0.052580000000     0.251330000000    -0.485926   
O27      O      0.441620000000     0.001910000000     0.213950000000    -0.473612   
O28      O      0.447460000000     0.512480000000     0.303630000000    -0.479696   
O29      O      0.001850000000     0.012690000000     0.303360000000    -0.471972   
O30      O      0.996240000000     0.000660000000     0.213630000000    -0.476185   
O31      O      0.998010000000     0.052890000000     0.251630000000    -0.485648   
O32      O      0.999660000000     0.463250000000     0.264020000000    -0.48025    
O33      O      0.217600000000     0.484980000000     0.062700000000    -0.404733   
O34      O      0.226340000000     0.482480000000     0.468140000000    -0.401826   
O35      O      0.271990000000     0.484360000000     0.519360000000    -0.398025   
O36      O      0.171980000000     0.483380000000     0.012290000000    -0.398284   
O37      O      0.171730000000     0.036190000000     0.009990000000    -0.398868   
O38      O      0.271400000000     0.037210000000     0.517530000000    -0.398574   
O39      O      0.226010000000     0.035290000000     0.466800000000    -0.401608   
O40      O      0.216990000000     0.037800000000     0.061520000000    -0.400207   
O41      O      0.217380000000     0.481350000000     0.311150000000    -0.400712   
O42      O      0.226220000000     0.483890000000     0.216400000000    -0.403717   
O43      O      0.271650000000     0.482120000000     0.266810000000    -0.400151   
O44      O      0.171960000000     0.482820000000     0.259510000000    -0.399952   
O45      O      0.172080000000     0.035640000000     0.261550000000    -0.396829   
O46      O      0.272090000000     0.034920000000     0.269070000000    -0.396912   
O47      O      0.226680000000     0.036700000000     0.217800000000    -0.401017   
O48      O      0.217580000000     0.034170000000     0.312320000000    -0.402837   
O49      O      0.499460000000     0.267580000000     0.040750000000    -0.399906   
O50      O      0.499470000000     0.253570000000     0.446460000000    -0.400452   
O51      O      0.499330000000     0.308150000000     0.486540000000    -0.399209   
O52      O      0.499630000000     0.213050000000     0.000380000000    -0.398716   
O53      O      0.944590000000     0.212390000000     0.000770000000    -0.398554   
O54      O      0.944280000000     0.307460000000     0.486430000000    -0.398773   
O55      O      0.944440000000     0.252590000000     0.446700000000    -0.401018   
O56      O      0.944410000000     0.267240000000     0.040850000000    -0.400186   
O57      O      0.499330000000     0.255850000000     0.196490000000    -0.399996   
O58      O      0.499380000000     0.264810000000     0.291380000000    -0.400708   
O59      O      0.498920000000     0.212440000000     0.248550000000    -0.398741   
O60      O      0.499760000000     0.308180000000     0.239750000000    -0.398935   
O61      O      0.944740000000     0.308590000000     0.240680000000    -0.399158   
O62      O      0.943880000000     0.212740000000     0.248140000000    -0.398703   
O63      O      0.944350000000     0.264520000000     0.291730000000    -0.400985   
O64      O      0.944290000000     0.256850000000     0.196760000000    -0.400259   
O65      O      0.944460000000     0.465660000000     0.002020000000    -0.485889   
O66      O      0.944960000000     0.055210000000     0.515200000000    -0.480633   
O67      O      0.944670000000     0.018000000000     0.463210000000    -0.47057    
O68      O      0.944240000000     0.505680000000     0.052990000000    -0.472226   
O69      O      0.498890000000     0.005690000000     0.053900000000    -0.469503   
O70      O      0.499030000000     0.017590000000     0.464130000000    -0.476791   
O71      O      0.499270000000     0.055000000000     0.516430000000    -0.481463   
O72      O      0.498650000000     0.465450000000     0.003950000000    -0.488755   
O73      O      0.945330000000     0.462970000000     0.262980000000    -0.482254   
O74      O      0.943770000000     0.052550000000     0.250790000000    -0.485796   
O75      O      0.941660000000     0.001510000000     0.214060000000    -0.472827   
O76      O      0.947430000000     0.513130000000     0.303670000000    -0.479216   
O77      O      0.501880000000     0.012060000000     0.303320000000    -0.471914   
O78      O      0.496200000000     0.001020000000     0.213510000000    -0.47757    
O79      O      0.498050000000     0.052870000000     0.252190000000    -0.486283   
O80      O      0.499630000000     0.463070000000     0.263470000000    -0.480553   
O81      O      0.717640000000     0.484940000000     0.062650000000    -0.404831   
O82      O      0.726300000000     0.482450000000     0.468090000000    -0.401728   
O83      O      0.771990000000     0.484280000000     0.519260000000    -0.398062   
O84      O      0.671980000000     0.483410000000     0.012280000000    -0.398467   
O85      O      0.671790000000     0.036220000000     0.009940000000    -0.398813   
O86      O      0.771450000000     0.037120000000     0.517490000000    -0.398711   
O87      O      0.726060000000     0.035270000000     0.466750000000    -0.401659   
O88      O      0.717050000000     0.037760000000     0.061480000000    -0.400187   
O89      O      0.717380000000     0.481330000000     0.311100000000    -0.400634   
O90      O      0.726310000000     0.483850000000     0.216360000000    -0.403791   
O91      O      0.771690000000     0.482120000000     0.266820000000    -0.399997   
O92      O      0.672000000000     0.482750000000     0.259420000000    -0.399876   
O93      O      0.672090000000     0.035570000000     0.261490000000    -0.396899   
O94      O      0.772090000000     0.034930000000     0.269030000000    -0.3968     
O95      O      0.726700000000     0.036660000000     0.217750000000    -0.401098   
O96      O      0.717580000000     0.034150000000     0.312270000000    -0.402746   
O97      O      0.999440000000     0.267310000000     0.540860000000    -0.400017   
O98      O      0.999470000000     0.252740000000     0.946700000000    -0.400345   
O99      O      0.999310000000     0.307580000000     0.986500000000    -0.398363   
O100     O      0.999620000000     0.212510000000     0.500760000000    -0.39819    
O101     O      0.444600000000     0.212930000000     0.500390000000    -0.39901    
O102     O      0.444300000000     0.308040000000     0.986490000000    -0.398829   
O103     O      0.444440000000     0.253440000000     0.946480000000    -0.400617   
O104     O      0.444440000000     0.267510000000     0.540750000000    -0.400141   
O105     O      0.999320000000     0.256520000000     0.696770000000    -0.399768   
O106     O      0.999380000000     0.264120000000     0.791730000000    -0.400614   
O107     O      0.998900000000     0.212370000000     0.748120000000    -0.398276   
O108     O      0.999760000000     0.308220000000     0.740740000000    -0.3986     
O109     O      0.444740000000     0.308530000000     0.739710000000    -0.399159   
O110     O      0.443900000000     0.212800000000     0.748530000000    -0.398709   
O111     O      0.444350000000     0.265160000000     0.791370000000    -0.400631   
O112     O      0.444310000000     0.256200000000     0.696470000000    -0.399978   
O113     O      0.444460000000     0.465690000000     0.502700000000    -0.486769   
O114     O      0.444950000000     0.055400000000     0.014610000000    -0.48097    
O115     O      0.444660000000     0.017560000000     0.963140000000    -0.471586   
O116     O      0.444240000000     0.506470000000     0.553030000000    -0.472672   
O117     O      0.998880000000     0.004890000000     0.553850000000    -0.468382   
O118     O      0.999040000000     0.017980000000     0.964190000000    -0.475628   
O119     O      0.999280000000     0.054800000000     0.016950000000    -0.480425   
O120     O      0.998660000000     0.465380000000     0.503240000000    -0.487084   
O121     O      0.445300000000     0.462840000000     0.762370000000    -0.482241   
O122     O      0.443810000000     0.052580000000     0.751330000000    -0.485927   
O123     O      0.441620000000     0.001910000000     0.713950000000    -0.4736     
O124     O      0.447460000000     0.512480000000     0.803630000000    -0.479675   
O125     O      0.001850000000     0.012690000000     0.803360000000    -0.471868   
O126     O      0.996240000000     0.000660000000     0.713630000000    -0.476171   
O127     O      0.998010000000     0.052890000000     0.751630000000    -0.485647   
O128     O      0.999660000000     0.463250000000     0.764020000000    -0.480242   
O129     O      0.217600000000     0.484980000000     0.562700000000    -0.404701   
O130     O      0.226340000000     0.482470000000     0.968140000000    -0.401814   
O131     O      0.271990000000     0.484360000000     0.019360000000    -0.397987   
O132     O      0.171980000000     0.483380000000     0.512290000000    -0.398348   
O133     O      0.171730000000     0.036190000000     0.509990000000    -0.398928   
O134     O      0.271400000000     0.037210000000     0.017530000000    -0.398542   
O135     O      0.226010000000     0.035290000000     0.966800000000    -0.401903   
O136     O      0.216990000000     0.037800000000     0.561520000000    -0.40016    
O137     O      0.217380000000     0.481360000000     0.811150000000    -0.40081    
O138     O      0.226220000000     0.483880000000     0.716400000000    -0.403568   
O139     O      0.271650000000     0.482120000000     0.766810000000    -0.400152   
O140     O      0.171960000000     0.482820000000     0.759510000000    -0.399953   
O141     O      0.172080000000     0.035640000000     0.761550000000    -0.396832   
O142     O      0.272090000000     0.034920000000     0.769070000000    -0.396915   
O143     O      0.226680000000     0.036700000000     0.717800000000    -0.401016   
O144     O      0.217580000000     0.034170000000     0.812320000000    -0.402788   
O145     O      0.499460000000     0.267580000000     0.540750000000    -0.400236   
O146     O      0.499470000000     0.253570000000     0.946460000000    -0.400422   
O147     O      0.499330000000     0.308150000000     0.986540000000    -0.399131   
O148     O      0.499630000000     0.213050000000     0.500380000000    -0.398977   
O149     O      0.944590000000     0.212390000000     0.500770000000    -0.398819   
O150     O      0.944280000000     0.307460000000     0.986430000000    -0.398757   
O151     O      0.944440000000     0.252590000000     0.946700000000    -0.40099    
O152     O      0.944410000000     0.267240000000     0.540850000000    -0.400424   
O153     O      0.499330000000     0.255850000000     0.696490000000    -0.399998   
O154     O      0.499380000000     0.264810000000     0.791380000000    -0.400707   
O155     O      0.498920000000     0.212440000000     0.748550000000    -0.398742   
O156     O      0.499760000000     0.308180000000     0.739750000000    -0.398936   
O157     O      0.944740000000     0.308590000000     0.740680000000    -0.399159   
O158     O      0.943880000000     0.212740000000     0.748140000000    -0.398705   
O159     O      0.944350000000     0.264520000000     0.791730000000    -0.400982   
O160     O      0.944290000000     0.256850000000     0.696760000000    -0.400237   
O161     O      0.944460000000     0.465650000000     0.502020000000    -0.485877   
O162     O      0.944960000000     0.055210000000     0.015200000000    -0.480565   
O163     O      0.944680000000     0.018000000000     0.963210000000    -0.470836   
O164     O      0.944240000000     0.505680000000     0.552990000000    -0.472209   
O165     O      0.498890000000     0.005690000000     0.553900000000    -0.469407   
O166     O      0.499030000000     0.017590000000     0.964130000000    -0.477063   
O167     O      0.499270000000     0.055000000000     0.016430000000    -0.481456   
O168     O      0.498660000000     0.465450000000     0.503950000000    -0.488588   
O169     O      0.945330000000     0.462970000000     0.762980000000    -0.482249   
O170     O      0.943770000000     0.052550000000     0.750790000000    -0.4858     
O171     O      0.941660000000     0.001510000000     0.714060000000    -0.472822   
O172     O      0.947430000000     0.513130000000     0.803670000000    -0.47921    
O173     O      0.501880000000     0.012060000000     0.803320000000    -0.471915   
O174     O      0.496200000000     0.001020000000     0.713510000000    -0.477559   
O175     O      0.498050000000     0.052870000000     0.752190000000    -0.486285   
O176     O      0.499630000000     0.463070000000     0.763470000000    -0.480711   
O177     O      0.717640000000     0.484940000000     0.562650000000    -0.404786   
O178     O      0.726300000000     0.482450000000     0.968090000000    -0.401963   
O179     O      0.771990000000     0.484280000000     0.019260000000    -0.398008   
O180     O      0.671980000000     0.483410000000     0.512280000000    -0.398511   
O181     O      0.671790000000     0.036220000000     0.509940000000    -0.398874   
O182     O      0.771450000000     0.037120000000     0.017490000000    -0.398679   
O183     O      0.726060000000     0.035270000000     0.966750000000    -0.401899   
O184     O      0.717050000000     0.037760000000     0.561480000000    -0.400143   
O185     O      0.717380000000     0.481330000000     0.811100000000    -0.400631   
O186     O      0.726310000000     0.483850000000     0.716360000000    -0.403742   
O187     O      0.771690000000     0.482120000000     0.766820000000    -0.399967   
O188     O      0.672000000000     0.482750000000     0.759420000000    -0.39991    
O189     O      0.672090000000     0.035570000000     0.761490000000    -0.396888   
O190     O      0.772100000000     0.034930000000     0.769030000000    -0.396782   
O191     O      0.726700000000     0.036660000000     0.717750000000    -0.40109    
O192     O      0.717580000000     0.034150000000     0.812270000000    -0.40274    
O193     O      0.999440000000     0.767310000000     0.040860000000    -0.399772   
O194     O      0.999470000000     0.752740000000     0.446700000000    -0.400223   
O195     O      0.999310000000     0.807580000000     0.486500000000    -0.398354   
O196     O      0.999610000000     0.712510000000     0.000760000000    -0.398      
O197     O      0.444600000000     0.712940000000     0.000390000000    -0.398843   
O198     O      0.444310000000     0.808040000000     0.486490000000    -0.398953   
O199     O      0.444440000000     0.753440000000     0.446480000000    -0.400654   
O200     O      0.444440000000     0.767510000000     0.040750000000    -0.399905   
O201     O      0.999310000000     0.756520000000     0.196780000000    -0.399939   
O202     O      0.999380000000     0.764120000000     0.291730000000    -0.40064    
O203     O      0.998900000000     0.712370000000     0.248120000000    -0.398301   
O204     O      0.999760000000     0.808220000000     0.240740000000    -0.398614   
O205     O      0.444740000000     0.808530000000     0.239710000000    -0.399143   
O206     O      0.443900000000     0.712800000000     0.248530000000    -0.398766   
O207     O      0.444350000000     0.765160000000     0.291370000000    -0.400692   
O208     O      0.444310000000     0.756210000000     0.196470000000    -0.39999    
O209     O      0.444460000000     0.965700000000     0.002700000000    -0.483246   
O210     O      0.444950000000     0.555400000000     0.514610000000    -0.481961   
O211     O      0.444660000000     0.517560000000     0.463140000000    -0.471212   
O212     O      0.444240000000     0.006470000000     0.053030000000    -0.473261   
O213     O      0.998880000000     0.504890000000     0.053850000000    -0.467604   
O214     O      0.999040000000     0.517980000000     0.464190000000    -0.475288   
O215     O      0.999280000000     0.554800000000     0.516950000000    -0.481374   
O216     O      0.998660000000     0.965380000000     0.003240000000    -0.483421   
O217     O      0.445300000000     0.962840000000     0.262370000000    -0.478875   
O218     O      0.443810000000     0.552580000000     0.251330000000    -0.486649   
O219     O      0.441620000000     0.501910000000     0.213950000000    -0.46693    
O220     O      0.447460000000     0.012480000000     0.303630000000    -0.479864   
O221     O      0.001850000000     0.512690000000     0.303360000000    -0.471619   
O222     O      0.996240000000     0.500660000000     0.213630000000    -0.469575   
O223     O      0.998010000000     0.552890000000     0.251630000000    -0.48635    
O224     O      0.999660000000     0.963250000000     0.264020000000    -0.47695    
O225     O      0.217590000000     0.984980000000     0.062700000000    -0.400523   
O226     O      0.226340000000     0.982470000000     0.468140000000    -0.397378   
O227     O      0.271990000000     0.984360000000     0.519360000000    -0.393727   
O228     O      0.171980000000     0.983380000000     0.012290000000    -0.394029   
O229     O      0.171730000000     0.536190000000     0.009990000000    -0.400206   
O230     O      0.271400000000     0.537200000000     0.517530000000    -0.400056   
O231     O      0.226010000000     0.535290000000     0.466800000000    -0.403034   
O232     O      0.216990000000     0.537800000000     0.061520000000    -0.401508   
O233     O      0.217380000000     0.981360000000     0.311150000000    -0.396557   
O234     O      0.226220000000     0.983880000000     0.216400000000    -0.399358   
O235     O      0.271650000000     0.982120000000     0.266810000000    -0.395896   
O236     O      0.171960000000     0.982820000000     0.259510000000    -0.395723   
O237     O      0.172090000000     0.535640000000     0.261550000000    -0.398163   
O238     O      0.272090000000     0.534920000000     0.269070000000    -0.398237   
O239     O      0.226680000000     0.536700000000     0.217800000000    -0.402394   
O240     O      0.217580000000     0.534170000000     0.312320000000    -0.404164   
O241     O      0.499460000000     0.767580000000     0.040750000000    -0.399999   
O242     O      0.499470000000     0.753570000000     0.446460000000    -0.400458   
O243     O      0.499340000000     0.808150000000     0.486540000000    -0.399081   
O244     O      0.499620000000     0.713050000000     0.000380000000    -0.398849   
O245     O      0.944590000000     0.712390000000     0.000770000000    -0.398537   
O246     O      0.944280000000     0.807460000000     0.486430000000    -0.398744   
O247     O      0.944430000000     0.752590000000     0.446700000000    -0.400955   
O248     O      0.944410000000     0.767240000000     0.040850000000    -0.400172   
O249     O      0.499330000000     0.755850000000     0.196490000000    -0.399994   
O250     O      0.499370000000     0.764810000000     0.291380000000    -0.400853   
O251     O      0.498920000000     0.712430000000     0.248550000000    -0.398736   
O252     O      0.499760000000     0.808180000000     0.239750000000    -0.398912   
O253     O      0.944740000000     0.808590000000     0.240680000000    -0.399157   
O254     O      0.943880000000     0.712740000000     0.248140000000    -0.398718   
O255     O      0.944350000000     0.764510000000     0.291730000000    -0.400994   
O256     O      0.944290000000     0.756860000000     0.196760000000    -0.400266   
O257     O      0.944460000000     0.965650000000     0.002020000000    -0.482208   
O258     O      0.944960000000     0.555210000000     0.515200000000    -0.481599   
O259     O      0.944670000000     0.518000000000     0.463210000000    -0.470459   
O260     O      0.944240000000     0.005680000000     0.052990000000    -0.47259    
O261     O      0.498890000000     0.505680000000     0.053900000000    -0.468698   
O262     O      0.499030000000     0.517590000000     0.464130000000    -0.476747   
O263     O      0.499270000000     0.555000000000     0.516430000000    -0.482422   
O264     O      0.498650000000     0.965450000000     0.003950000000    -0.485098   
O265     O      0.945330000000     0.962970000000     0.262980000000    -0.478886   
O266     O      0.943770000000     0.552550000000     0.250790000000    -0.48648    
O267     O      0.941660000000     0.501510000000     0.214060000000    -0.466124   
O268     O      0.947430000000     0.013130000000     0.303670000000    -0.479404   
O269     O      0.501880000000     0.512060000000     0.303320000000    -0.471537   
O270     O      0.496200000000     0.501020000000     0.213510000000    -0.470945   
O271     O      0.498050000000     0.552870000000     0.252190000000    -0.486972   
O272     O      0.499630000000     0.963070000000     0.263470000000    -0.477411   
O273     O      0.717640000000     0.984940000000     0.062650000000    -0.400607   
O274     O      0.726300000000     0.982450000000     0.468090000000    -0.39744    
O275     O      0.771990000000     0.984280000000     0.519260000000    -0.393812   
O276     O      0.671980000000     0.983410000000     0.012280000000    -0.394182   
O277     O      0.671780000000     0.536220000000     0.009940000000    -0.400185   
O278     O      0.771450000000     0.537120000000     0.517490000000    -0.400035   
O279     O      0.726050000000     0.535270000000     0.466750000000    -0.403015   
O280     O      0.717050000000     0.537760000000     0.061480000000    -0.401483   
O281     O      0.717380000000     0.981330000000     0.311100000000    -0.396331   
O282     O      0.726310000000     0.983850000000     0.216360000000    -0.399577   
O283     O      0.771690000000     0.982120000000     0.266820000000    -0.395716   
O284     O      0.672000000000     0.982750000000     0.259420000000    -0.395647   
O285     O      0.672100000000     0.535570000000     0.261490000000    -0.398214   
O286     O      0.772100000000     0.534930000000     0.269030000000    -0.3981     
O287     O      0.726700000000     0.536660000000     0.217750000000    -0.402415   
O288     O      0.717580000000     0.534150000000     0.312270000000    -0.404117   
O289     O      0.999440000000     0.767310000000     0.540860000000    -0.39999    
O290     O      0.999470000000     0.752740000000     0.946700000000    -0.400361   
O291     O      0.999310000000     0.807580000000     0.986500000000    -0.398364   
O292     O      0.999620000000     0.712510000000     0.500760000000    -0.398193   
O293     O      0.444600000000     0.712930000000     0.500390000000    -0.399031   
O294     O      0.444310000000     0.808040000000     0.986490000000    -0.398983   
O295     O      0.444440000000     0.753440000000     0.946480000000    -0.400642   
O296     O      0.444440000000     0.767510000000     0.540750000000    -0.400232   
O297     O      0.999310000000     0.756520000000     0.696770000000    -0.399916   
O298     O      0.999380000000     0.764120000000     0.791730000000    -0.400627   
O299     O      0.998900000000     0.712370000000     0.748120000000    -0.398293   
O300     O      0.999770000000     0.808220000000     0.740740000000    -0.398455   
O301     O      0.444740000000     0.808530000000     0.739710000000    -0.399152   
O302     O      0.443900000000     0.712800000000     0.748530000000    -0.398728   
O303     O      0.444350000000     0.765160000000     0.791370000000    -0.40064    
O304     O      0.444310000000     0.756210000000     0.696470000000    -0.399983   
O305     O      0.444460000000     0.965700000000     0.502700000000    -0.483242   
O306     O      0.444950000000     0.555400000000     0.014610000000    -0.482005   
O307     O      0.444660000000     0.517560000000     0.963140000000    -0.471484   
O308     O      0.444240000000     0.006470000000     0.553030000000    -0.473195   
O309     O      0.998880000000     0.504890000000     0.553850000000    -0.467493   
O310     O      0.999040000000     0.517980000000     0.964190000000    -0.475407   
O311     O      0.999280000000     0.554800000000     0.016950000000    -0.481369   
O312     O      0.998660000000     0.965380000000     0.503240000000    -0.483366   
O313     O      0.445300000000     0.962840000000     0.762370000000    -0.478883   
O314     O      0.443810000000     0.552580000000     0.751330000000    -0.486611   
O315     O      0.441620000000     0.501910000000     0.713950000000    -0.466907   
O316     O      0.447460000000     0.012480000000     0.803630000000    -0.479865   
O317     O      0.001850000000     0.512680000000     0.803360000000    -0.471628   
O318     O      0.996240000000     0.500660000000     0.713630000000    -0.469686   
O319     O      0.998010000000     0.552890000000     0.751630000000    -0.486367   
O320     O      0.999660000000     0.963250000000     0.764020000000    -0.476956   
O321     O      0.217590000000     0.984980000000     0.562700000000    -0.400471   
O322     O      0.226340000000     0.982480000000     0.968140000000    -0.397798   
O323     O      0.271990000000     0.984360000000     0.019360000000    -0.393694   
O324     O      0.171980000000     0.983380000000     0.512290000000    -0.394081   
O325     O      0.171730000000     0.536190000000     0.509990000000    -0.400254   
O326     O      0.271390000000     0.537210000000     0.017530000000    -0.399801   
O327     O      0.226010000000     0.535290000000     0.966800000000    -0.403322   
O328     O      0.216990000000     0.537800000000     0.561520000000    -0.401461   
O329     O      0.217380000000     0.981350000000     0.811150000000    -0.396424   
O330     O      0.226220000000     0.983880000000     0.716400000000    -0.399359   
O331     O      0.271650000000     0.982120000000     0.766810000000    -0.395904   
O332     O      0.171960000000     0.982820000000     0.759510000000    -0.395731   
O333     O      0.172090000000     0.535640000000     0.761550000000    -0.39816    
O334     O      0.272090000000     0.534920000000     0.769070000000    -0.398236   
O335     O      0.226680000000     0.536700000000     0.717800000000    -0.402335   
O336     O      0.217580000000     0.534180000000     0.812320000000    -0.404066   
O337     O      0.499460000000     0.767580000000     0.540750000000    -0.400152   
O338     O      0.499470000000     0.753570000000     0.946460000000    -0.400442   
O339     O      0.499330000000     0.808150000000     0.986540000000    -0.399186   
O340     O      0.499630000000     0.713050000000     0.500380000000    -0.398994   
O341     O      0.944590000000     0.712390000000     0.500770000000    -0.398815   
O342     O      0.944280000000     0.807460000000     0.986430000000    -0.398753   
O343     O      0.944440000000     0.752590000000     0.946700000000    -0.401002   
O344     O      0.944410000000     0.767240000000     0.540850000000    -0.400393   
O345     O      0.499330000000     0.755860000000     0.696490000000    -0.399987   
O346     O      0.499380000000     0.764810000000     0.791380000000    -0.400719   
O347     O      0.498920000000     0.712430000000     0.748550000000    -0.398631   
O348     O      0.499760000000     0.808180000000     0.739750000000    -0.39899    
O349     O      0.944740000000     0.808590000000     0.740680000000    -0.399102   
O350     O      0.943880000000     0.712740000000     0.748140000000    -0.398721   
O351     O      0.944350000000     0.764510000000     0.791730000000    -0.401      
O352     O      0.944290000000     0.756860000000     0.696760000000    -0.4003     
O353     O      0.944460000000     0.965660000000     0.502020000000    -0.482238   
O354     O      0.944960000000     0.555210000000     0.015200000000    -0.481591   
O355     O      0.944670000000     0.518000000000     0.963210000000    -0.470715   
O356     O      0.944240000000     0.005680000000     0.552990000000    -0.472625   
O357     O      0.498890000000     0.505690000000     0.553900000000    -0.468641   
O358     O      0.499030000000     0.517590000000     0.964130000000    -0.477008   
O359     O      0.499260000000     0.555000000000     0.016430000000    -0.48257    
O360     O      0.498650000000     0.965450000000     0.503950000000    -0.485051   
O361     O      0.945330000000     0.962970000000     0.762980000000    -0.478899   
O362     O      0.943770000000     0.552550000000     0.750790000000    -0.486482   
O363     O      0.941660000000     0.501510000000     0.714060000000    -0.466021   
O364     O      0.947430000000     0.013130000000     0.803670000000    -0.479514   
O365     O      0.501880000000     0.512060000000     0.803320000000    -0.471556   
O366     O      0.496200000000     0.501020000000     0.713510000000    -0.470959   
O367     O      0.498050000000     0.552870000000     0.752190000000    -0.486987   
O368     O      0.499630000000     0.963070000000     0.763470000000    -0.477419   
O369     O      0.717640000000     0.984940000000     0.562650000000    -0.400561   
O370     O      0.726300000000     0.982450000000     0.968090000000    -0.397711   
O371     O      0.771990000000     0.984280000000     0.019260000000    -0.393776   
O372     O      0.671980000000     0.983410000000     0.512280000000    -0.394236   
O373     O      0.671780000000     0.536220000000     0.509940000000    -0.400161   
O374     O      0.771450000000     0.537120000000     0.017490000000    -0.399915   
O375     O      0.726050000000     0.535270000000     0.966750000000    -0.403248   
O376     O      0.717050000000     0.537760000000     0.561480000000    -0.401432   
O377     O      0.717380000000     0.981330000000     0.811100000000    -0.396346   
O378     O      0.726310000000     0.983850000000     0.716360000000    -0.399589   
O379     O      0.771690000000     0.982120000000     0.766820000000    -0.395758   
O380     O      0.672000000000     0.982750000000     0.759420000000    -0.395658   
O381     O      0.672090000000     0.535570000000     0.761490000000    -0.398211   
O382     O      0.772090000000     0.534930000000     0.769030000000    -0.398104   
O383     O      0.726700000000     0.536670000000     0.717750000000    -0.40226    
O384     O      0.717580000000     0.534150000000     0.812270000000    -0.404112   


