data_structure

_audit_creation_method RASPA-1.0
_audit_creation_date 2023-5-19
_audit_author_name 'Poobodin Mano'

_cell_length_a    42.5182
_cell_length_b    42.1652
_cell_length_c    42.6913
_cell_angle_alpha 90
_cell_angle_beta  90
_cell_angle_gamma 90
_cell_volume      76536.5

_symmetry_cell_setting          triclinic
_symmetry_space_group_name_Hall 'P 1'
_symmetry_space_group_name_H-M  'P 1'
_symmetry_Int_Tables_number     1

_symmetry_equiv_pos_as_xyz 'x,y,z'

loop_
_atom_site_label
_atom_site_type_symbol
_atom_site_fract_x
_atom_site_fract_y
_atom_site_fract_z
_atom_site_charge
C1       C      0.513350000000     0.065770000000     0.244920000000     0.405732   
C2       C      0.008350000000     0.441730000000     0.265500000000     0.399882   
C3       C      0.448070000000     0.007310000000     0.256970000000     0.39352    
C4       C      0.072860000000     0.500220000000     0.254220000000     0.405627   
C5       C      0.998350000000     0.192590000000     0.255360000000     0.397246   
C6       C      0.988060000000     0.318100000000     0.256280000000     0.405585   
C7       C      0.997550000000     0.255290000000     0.193710000000     0.405145   
C8       C      0.989370000000     0.254400000000     0.317720000000     0.405123   
C9       C      0.322070000000     0.025980000000     0.246470000000     0.400712   
C10      C      0.197660000000     0.018140000000     0.236600000000     0.395292   
C11      C      0.265610000000     0.028090000000     0.179950000000     0.399672   
C12      C      0.253400000000     0.016110000000     0.303380000000     0.398792   
C13      C      0.251990000000     0.014530000000     0.054650000000     0.402091   
C14      C      0.241990000000     0.506350000000     0.430590000000     0.398887   
C15      C      0.247770000000     0.074280000000     0.990160000000     0.404092   
C16      C      0.245960000000     0.448230000000     0.496900000000     0.397808   
C17      C      0.004680000000     0.253520000000     0.064860000000     0.399108   
C18      C      0.508520000000     0.242830000000     0.440910000000     0.399546   
C19      C      0.069630000000     0.244810000000     0.002420000000     0.405028   
C20      C      0.444750000000     0.251230000000     0.502410000000     0.39991    
C21      C      0.260080000000     0.202970000000     0.010020000000     0.393435   
C22      C      0.256610000000     0.327880000000     0.026970000000     0.402545   
C23      C      0.195370000000     0.263440000000     0.014460000000     0.394554   
C24      C      0.320220000000     0.266810000000     0.022600000000     0.399576   
C25      C      0.395390000000     0.278230000000     0.487290000000    -0.0134086  
C26      C      0.394220000000     0.227830000000     0.518940000000    -0.0411051  
C27      C      0.370090000000     0.292310000000     0.008580000000    -0.0160717  
C28      C      0.370700000000     0.242990000000     0.041790000000     0.0906111  
C29      C      0.144600000000     0.247300000000     0.037790000000    -0.0147222  
C30      C      0.146270000000     0.277680000000     0.486750000000    -0.0425907  
C31      C      0.119330000000     0.225340000000     0.024110000000    -0.0089698  
C32      C      0.120000000000     0.256330000000     0.474090000000     0.0920625  
C33      C      0.219170000000     0.398360000000     0.013220000000    -0.0217785  
C34      C      0.273740000000     0.397170000000     0.490470000000    -0.0438382  
C35      C      0.230490000000     0.377570000000     0.040810000000    -0.00876501 
C36      C      0.285120000000     0.378570000000     0.518940000000     0.0940658  
C37      C      0.279510000000     0.155920000000     0.981070000000    -0.0119708  
C38      C      0.248250000000     0.150060000000     0.030740000000    -0.0409335  
C39      C      0.264140000000     0.125440000000     0.468310000000    -0.010395   
C40      C      0.228750000000     0.123690000000     0.515880000000     0.0926511  
C41      C      0.261060000000     0.480660000000     0.382300000000    -0.0122551  
C42      C      0.213280000000     0.015190000000     0.381000000000    -0.0436789  
C43      C      0.273740000000     0.496320000000     0.352640000000    -0.0106929  
C44      C      0.226130000000     0.032900000000     0.352180000000     0.0915311  
C45      C      0.250500000000     0.053650000000     0.130190000000    -0.014506   
C46      C      0.291570000000     0.510800000000     0.131230000000    -0.0401089  
C47      C      0.232580000000     0.035300000000     0.104750000000    -0.0097122  
C48      C      0.274600000000     0.493340000000     0.104680000000     0.0907488  
C49      C      0.027110000000     0.263910000000     0.390390000000    -0.0121151  
C50      C      0.493280000000     0.215090000000     0.392170000000    -0.0407526  
C51      C      0.004730000000     0.279140000000     0.367070000000    -0.00883953 
C52      C      0.470570000000     0.230220000000     0.368220000000     0.0904896  
C53      C      0.510320000000     0.284280000000     0.113820000000    -0.0137009  
C54      C      0.477150000000     0.234870000000     0.111840000000    -0.0414238  
C55      C      0.022900000000     0.274050000000     0.145920000000    -0.00872833 
C56      C      0.988630000000     0.225530000000     0.144510000000     0.0910724  
C57      C      0.145850000000     0.040030000000     0.250760000000    -0.0142835  
C58      C      0.149790000000     0.990720000000     0.217580000000    -0.0358792  
C59      C      0.122300000000     0.523320000000     0.272180000000    -0.00851472 
C60      C      0.123860000000     0.475240000000     0.237450000000     0.0913538  
C61      C      0.396860000000     0.490040000000     0.235840000000    -0.0141457  
C62      C      0.399290000000     0.527120000000     0.282060000000    -0.0418724  
C63      C      0.371240000000     0.010480000000     0.221330000000    -0.0153979  
C64      C      0.373110000000     0.047680000000     0.267340000000     0.0903098  
C65      C      0.027460000000     0.389450000000     0.249030000000    -0.010834   
C66      C      0.489300000000     0.394080000000     0.293720000000    -0.0402774  
C67      C      0.005230000000     0.367310000000     0.231930000000    -0.00789045 
C68      C      0.467340000000     0.369810000000     0.277320000000     0.0890592  
C69      C      0.025480000000     0.144020000000     0.273170000000    -0.0145061  
C70      C      0.476460000000     0.140750000000     0.239940000000    -0.0414754  
C71      C      0.039650000000     0.116550000000     0.254560000000    -0.00769353 
C72      C      0.491970000000     0.114950000000     0.219810000000     0.0911173  
C73      C      0.513350000000     0.065770000000     0.744920000000     0.405701   
C74      C      0.008350000000     0.441730000000     0.765500000000     0.399844   
C75      C      0.448070000000     0.007310000000     0.756970000000     0.393472   
C76      C      0.072860000000     0.500220000000     0.754220000000     0.405354   
C77      C      0.998350000000     0.192590000000     0.755360000000     0.397228   
C78      C      0.988060000000     0.318100000000     0.756280000000     0.405577   
C79      C      0.997550000000     0.255290000000     0.693710000000     0.405133   
C80      C      0.989370000000     0.254400000000     0.817720000000     0.405111   
C81      C      0.322070000000     0.025980000000     0.746470000000     0.400697   
C82      C      0.197660000000     0.018140000000     0.736600000000     0.395276   
C83      C      0.265610000000     0.028090000000     0.679950000000     0.39967    
C84      C      0.253400000000     0.016110000000     0.803380000000     0.398775   
C85      C      0.251990000000     0.014530000000     0.554650000000     0.401654   
C86      C      0.241990000000     0.506350000000     0.930590000000     0.398955   
C87      C      0.247770000000     0.074280000000     0.490160000000     0.403638   
C88      C      0.245960000000     0.448230000000     0.996900000000     0.398261   
C89      C      0.004680000000     0.253520000000     0.564860000000     0.399374   
C90      C      0.508520000000     0.242830000000     0.940910000000     0.399142   
C91      C      0.069630000000     0.244810000000     0.502420000000     0.405623   
C92      C      0.444750000000     0.251230000000     0.002410000000     0.395823   
C93      C      0.260080000000     0.202970000000     0.510020000000     0.397075   
C94      C      0.256610000000     0.327880000000     0.526970000000     0.406269   
C95      C      0.195370000000     0.263440000000     0.514460000000     0.398471   
C96      C      0.320220000000     0.266810000000     0.522600000000     0.403507   
C97      C      0.395390000000     0.278230000000     0.987290000000    -0.00716534 
C98      C      0.394220000000     0.227830000000     0.018940000000    -0.0409099  
C99      C      0.370090000000     0.292310000000     0.508580000000    -0.00865496 
C100     C      0.370700000000     0.242990000000     0.541790000000     0.0911513  
C101     C      0.144600000000     0.247300000000     0.537800000000    -0.0145009  
C102     C      0.146270000000     0.277680000000     0.986750000000    -0.0409265  
C103     C      0.119330000000     0.225340000000     0.524110000000    -0.00877159 
C104     C      0.120000000000     0.256330000000     0.974090000000     0.0940149  
C105     C      0.219170000000     0.398360000000     0.513220000000    -0.0159212  
C106     C      0.273740000000     0.397170000000     0.990470000000    -0.0410644  
C107     C      0.230490000000     0.377570000000     0.540810000000    -0.00975445 
C108     C      0.285120000000     0.378570000000     0.018940000000     0.0912194  
C109     C      0.279510000000     0.155920000000     0.481070000000    -0.0142103  
C110     C      0.248250000000     0.150060000000     0.530740000000    -0.0411677  
C111     C      0.264140000000     0.125440000000     0.968310000000    -0.0106262  
C112     C      0.228750000000     0.123690000000     0.015880000000     0.0903767  
C113     C      0.261060000000     0.480660000000     0.882300000000    -0.0122595  
C114     C      0.213280000000     0.015190000000     0.881000000000    -0.0437147  
C115     C      0.273740000000     0.496320000000     0.852640000000    -0.0106986  
C116     C      0.226130000000     0.032900000000     0.852180000000     0.0915494  
C117     C      0.250500000000     0.053650000000     0.630190000000    -0.0145139  
C118     C      0.291570000000     0.510800000000     0.631230000000    -0.0401576  
C119     C      0.232580000000     0.035300000000     0.604750000000    -0.00972109 
C120     C      0.274600000000     0.493340000000     0.604680000000     0.0908306  
C121     C      0.027110000000     0.263910000000     0.890390000000    -0.0121445  
C122     C      0.493280000000     0.215090000000     0.892170000000    -0.0407806  
C123     C      0.004730000000     0.279140000000     0.867070000000    -0.00881667 
C124     C      0.470570000000     0.230220000000     0.868220000000     0.0904957  
C125     C      0.510320000000     0.284280000000     0.613820000000    -0.0137111  
C126     C      0.477150000000     0.234870000000     0.611840000000    -0.0414116  
C127     C      0.022900000000     0.274050000000     0.645920000000    -0.00871911 
C128     C      0.988630000000     0.225530000000     0.644520000000     0.0911032  
C129     C      0.145850000000     0.040030000000     0.750760000000    -0.0143107  
C130     C      0.149790000000     0.990720000000     0.717580000000    -0.0358503  
C131     C      0.122300000000     0.523320000000     0.772180000000    -0.00852674 
C132     C      0.123860000000     0.475240000000     0.737450000000     0.0913536  
C133     C      0.396860000000     0.490040000000     0.735840000000    -0.0141628  
C134     C      0.399290000000     0.527120000000     0.782060000000    -0.0418973  
C135     C      0.371240000000     0.010480000000     0.721330000000    -0.0154027  
C136     C      0.373110000000     0.047680000000     0.767340000000     0.0903196  
C137     C      0.027460000000     0.389450000000     0.749030000000    -0.0108419  
C138     C      0.489300000000     0.394080000000     0.793720000000    -0.0403013  
C139     C      0.005230000000     0.367310000000     0.731930000000    -0.00788941 
C140     C      0.467340000000     0.369810000000     0.777320000000     0.0890714  
C141     C      0.025480000000     0.144020000000     0.773170000000    -0.0145244  
C142     C      0.476460000000     0.140750000000     0.739940000000    -0.0414867  
C143     C      0.039650000000     0.116550000000     0.754560000000    -0.00769071 
C144     C      0.491970000000     0.114950000000     0.719810000000     0.091123   
C145     C      0.513350000000     0.565780000000     0.244920000000     0.405605   
C146     C      0.008350000000     0.941730000000     0.265500000000     0.399843   
C147     C      0.448070000000     0.507310000000     0.256970000000     0.397149   
C148     C      0.072860000000     0.000220000000     0.254220000000     0.399238   
C149     C      0.998350000000     0.692590000000     0.255360000000     0.397242   
C150     C      0.988060000000     0.818100000000     0.256280000000     0.405578   
C151     C      0.997550000000     0.755290000000     0.193710000000     0.405138   
C152     C      0.989370000000     0.754400000000     0.317720000000     0.405115   
C153     C      0.322070000000     0.525980000000     0.246470000000     0.404563   
C154     C      0.197660000000     0.518140000000     0.236600000000     0.398666   
C155     C      0.265610000000     0.528090000000     0.179950000000     0.399888   
C156     C      0.253400000000     0.516110000000     0.303380000000     0.402204   
C157     C      0.251990000000     0.514530000000     0.054650000000     0.402505   
C158     C      0.241990000000     0.006350000000     0.430590000000     0.398325   
C159     C      0.247770000000     0.574280000000     0.990160000000     0.404242   
C160     C      0.245960000000     0.948230000000     0.496900000000     0.39742    
C161     C      0.004680000000     0.753520000000     0.064860000000     0.399093   
C162     C      0.508520000000     0.742830000000     0.440910000000     0.39953    
C163     C      0.069630000000     0.744810000000     0.002420000000     0.405009   
C164     C      0.444750000000     0.751230000000     0.502410000000     0.399889   
C165     C      0.260080000000     0.702970000000     0.010020000000     0.39341    
C166     C      0.256610000000     0.827880000000     0.026970000000     0.402632   
C167     C      0.195370000000     0.763440000000     0.014460000000     0.394536   
C168     C      0.320220000000     0.766810000000     0.022600000000     0.399552   
C169     C      0.395390000000     0.778230000000     0.487290000000    -0.0133941  
C170     C      0.394220000000     0.727830000000     0.518940000000    -0.0411746  
C171     C      0.370090000000     0.792310000000     0.008580000000    -0.0161119  
C172     C      0.370700000000     0.742990000000     0.041790000000     0.0906297  
C173     C      0.144600000000     0.747300000000     0.037790000000    -0.0147332  
C174     C      0.146270000000     0.777680000000     0.486750000000    -0.0426468  
C175     C      0.119330000000     0.725340000000     0.024110000000    -0.00897612 
C176     C      0.120000000000     0.756340000000     0.474090000000     0.0920982  
C177     C      0.219170000000     0.898360000000     0.013220000000    -0.0218283  
C178     C      0.273740000000     0.897170000000     0.490470000000    -0.0438871  
C179     C      0.230490000000     0.877570000000     0.040810000000    -0.00872733 
C180     C      0.285120000000     0.878560000000     0.518940000000     0.0941574  
C181     C      0.279510000000     0.655920000000     0.981070000000    -0.0119719  
C182     C      0.248250000000     0.650060000000     0.030740000000    -0.0409511  
C183     C      0.264140000000     0.625440000000     0.468310000000    -0.010388   
C184     C      0.228750000000     0.623690000000     0.515880000000     0.0926727  
C185     C      0.261060000000     0.980660000000     0.382300000000    -0.0114856  
C186     C      0.213280000000     0.515190000000     0.381000000000    -0.0398437  
C187     C      0.273740000000     0.996320000000     0.352640000000    -0.00511665 
C188     C      0.226130000000     0.532900000000     0.352180000000     0.0909948  
C189     C      0.250500000000     0.553650000000     0.130190000000    -0.0140819  
C190     C      0.291570000000     0.010800000000     0.131230000000    -0.047065   
C191     C      0.232580000000     0.535300000000     0.104750000000    -0.00995647 
C192     C      0.274600000000     0.993340000000     0.104680000000     0.0964345  
C193     C      0.027110000000     0.763910000000     0.390390000000    -0.0121647  
C194     C      0.493280000000     0.715090000000     0.392170000000    -0.0407495  
C195     C      0.004730000000     0.779130000000     0.367070000000    -0.00873561 
C196     C      0.470570000000     0.730220000000     0.368220000000     0.0904364  
C197     C      0.510320000000     0.784280000000     0.113820000000    -0.0137194  
C198     C      0.477150000000     0.734870000000     0.111840000000    -0.0414365  
C199     C      0.022900000000     0.774050000000     0.145920000000    -0.00872688 
C200     C      0.988630000000     0.725530000000     0.144510000000     0.0910793  
C201     C      0.145850000000     0.540030000000     0.250760000000    -0.0147434  
C202     C      0.149790000000     0.490720000000     0.217580000000    -0.041845   
C203     C      0.122300000000     0.023320000000     0.272180000000    -0.0111749  
C204     C      0.123860000000     0.975240000000     0.237450000000     0.0902191  
C205     C      0.396860000000     0.990040000000     0.235840000000    -0.00779464 
C206     C      0.399290000000     0.027120000000     0.282060000000    -0.0417006  
C207     C      0.371240000000     0.510490000000     0.221330000000    -0.00790486 
C208     C      0.373110000000     0.547680000000     0.267340000000     0.0908287  
C209     C      0.027460000000     0.889450000000     0.249030000000    -0.0108088  
C210     C      0.489300000000     0.894080000000     0.293720000000    -0.0403223  
C211     C      0.005230000000     0.867310000000     0.231930000000    -0.00791019 
C212     C      0.467340000000     0.869820000000     0.277320000000     0.0890526  
C213     C      0.025480000000     0.644020000000     0.273170000000    -0.0145053  
C214     C      0.476460000000     0.640750000000     0.239940000000    -0.0414721  
C215     C      0.039650000000     0.616550000000     0.254560000000    -0.00769439 
C216     C      0.491970000000     0.614950000000     0.219810000000     0.091146   
C217     C      0.513350000000     0.565780000000     0.744920000000     0.405573   
C218     C      0.008350000000     0.941730000000     0.765500000000     0.399806   
C219     C      0.448070000000     0.507310000000     0.756970000000     0.397114   
C220     C      0.072860000000     0.000220000000     0.754220000000     0.398942   
C221     C      0.998350000000     0.692590000000     0.755360000000     0.397224   
C222     C      0.988060000000     0.818100000000     0.756280000000     0.40557    
C223     C      0.997550000000     0.755290000000     0.693710000000     0.405126   
C224     C      0.989370000000     0.754400000000     0.817720000000     0.405103   
C225     C      0.322070000000     0.525980000000     0.746470000000     0.404562   
C226     C      0.197660000000     0.518140000000     0.736600000000     0.398663   
C227     C      0.265610000000     0.528090000000     0.679950000000     0.399887   
C228     C      0.253400000000     0.516110000000     0.803380000000     0.402198   
C229     C      0.251990000000     0.514530000000     0.554650000000     0.402066   
C230     C      0.241990000000     0.006350000000     0.930590000000     0.39839    
C231     C      0.247770000000     0.574280000000     0.490160000000     0.403785   
C232     C      0.245960000000     0.948230000000     0.996900000000     0.397871   
C233     C      0.004680000000     0.753520000000     0.564860000000     0.39936    
C234     C      0.508520000000     0.742830000000     0.940910000000     0.399124   
C235     C      0.069630000000     0.744810000000     0.502420000000     0.405607   
C236     C      0.444750000000     0.751230000000     0.002410000000     0.395788   
C237     C      0.260080000000     0.702970000000     0.510020000000     0.397065   
C238     C      0.256610000000     0.827880000000     0.526970000000     0.406368   
C239     C      0.195370000000     0.763440000000     0.514460000000     0.398466   
C240     C      0.320220000000     0.766810000000     0.522600000000     0.403496   
C241     C      0.395390000000     0.778230000000     0.987290000000    -0.00712751 
C242     C      0.394220000000     0.727830000000     0.018940000000    -0.0409784  
C243     C      0.370090000000     0.792310000000     0.508580000000    -0.00866953 
C244     C      0.370700000000     0.742990000000     0.541790000000     0.0911719  
C245     C      0.144600000000     0.747300000000     0.537800000000    -0.0145105  
C246     C      0.146270000000     0.777680000000     0.986750000000    -0.040977   
C247     C      0.119330000000     0.725340000000     0.524110000000    -0.00877769 
C248     C      0.120000000000     0.756340000000     0.974090000000     0.0940564  
C249     C      0.219170000000     0.898360000000     0.513220000000    -0.0159551  
C250     C      0.273740000000     0.897170000000     0.990470000000    -0.0411077  
C251     C      0.230490000000     0.877570000000     0.540810000000    -0.00971892 
C252     C      0.285120000000     0.878560000000     0.018940000000     0.0913046  
C253     C      0.279510000000     0.655920000000     0.481070000000    -0.0142215  
C254     C      0.248250000000     0.650060000000     0.530740000000    -0.0411868  
C255     C      0.264140000000     0.625440000000     0.968310000000    -0.0106204  
C256     C      0.228750000000     0.623690000000     0.015880000000     0.0903855  
C257     C      0.261060000000     0.980660000000     0.882300000000    -0.011489   
C258     C      0.213280000000     0.515190000000     0.881000000000    -0.0398703  
C259     C      0.273740000000     0.996320000000     0.852640000000    -0.00510907 
C260     C      0.226130000000     0.532900000000     0.852180000000     0.0910121  
C261     C      0.250500000000     0.553650000000     0.630190000000    -0.0140874  
C262     C      0.291570000000     0.010800000000     0.631230000000    -0.047152   
C263     C      0.232580000000     0.535300000000     0.604750000000    -0.00996691 
C264     C      0.274600000000     0.993340000000     0.604680000000     0.0965485  
C265     C      0.027110000000     0.763910000000     0.890390000000    -0.0121942  
C266     C      0.493280000000     0.715090000000     0.892170000000    -0.0407777  
C267     C      0.004730000000     0.779130000000     0.867070000000    -0.00871277 
C268     C      0.470570000000     0.730220000000     0.868220000000     0.0904427  
C269     C      0.510320000000     0.784280000000     0.613820000000    -0.0137297  
C270     C      0.477150000000     0.734870000000     0.611840000000    -0.0414244  
C271     C      0.022900000000     0.774050000000     0.645920000000    -0.00871766 
C272     C      0.988630000000     0.725530000000     0.644520000000     0.0911101  
C273     C      0.145850000000     0.540030000000     0.750760000000    -0.0147724  
C274     C      0.149790000000     0.490720000000     0.717580000000    -0.0418391  
C275     C      0.122300000000     0.023320000000     0.772180000000    -0.0111964  
C276     C      0.123860000000     0.975240000000     0.737450000000     0.0902144  
C277     C      0.396860000000     0.990040000000     0.735840000000    -0.00778934 
C278     C      0.399290000000     0.027120000000     0.782060000000    -0.0417248  
C279     C      0.371240000000     0.510490000000     0.721330000000    -0.00788311 
C280     C      0.373110000000     0.547680000000     0.767340000000     0.0908404  
C281     C      0.027460000000     0.889450000000     0.749030000000    -0.0108166  
C282     C      0.489300000000     0.894080000000     0.793720000000    -0.0403463  
C283     C      0.005230000000     0.867310000000     0.731930000000    -0.00790926 
C284     C      0.467340000000     0.869820000000     0.777320000000     0.0890648  
C285     C      0.025480000000     0.644020000000     0.773170000000    -0.0145237  
C286     C      0.476460000000     0.640750000000     0.739940000000    -0.0414835  
C287     C      0.039650000000     0.616550000000     0.754560000000    -0.00769157 
C288     C      0.491970000000     0.614950000000     0.719810000000     0.0911518  
C289     C      0.013350000000     0.065770000000     0.244920000000     0.405695   
C290     C      0.508340000000     0.441730000000     0.265500000000     0.399904   
C291     C      0.948070000000     0.007310000000     0.256970000000     0.393491   
C292     C      0.572860000000     0.500220000000     0.254220000000     0.405643   
C293     C      0.498350000000     0.192590000000     0.255360000000     0.396582   
C294     C      0.488060000000     0.318100000000     0.256280000000     0.4052     
C295     C      0.497550000000     0.255290000000     0.193710000000     0.404722   
C296     C      0.489370000000     0.254400000000     0.317720000000     0.40474    
C297     C      0.822070000000     0.025980000000     0.246470000000     0.400716   
C298     C      0.697660000000     0.018140000000     0.236600000000     0.39529    
C299     C      0.765610000000     0.028090000000     0.179950000000     0.399673   
C300     C      0.753400000000     0.016110000000     0.303380000000     0.398787   
C301     C      0.751990000000     0.014530000000     0.054650000000     0.402089   
C302     C      0.741990000000     0.506350000000     0.430590000000     0.398886   
C303     C      0.747770000000     0.074280000000     0.990160000000     0.40409    
C304     C      0.745960000000     0.448230000000     0.496900000000     0.397809   
C305     C      0.504680000000     0.253520000000     0.064860000000     0.39942    
C306     C      0.008520000000     0.242830000000     0.440910000000     0.399543   
C307     C      0.569630000000     0.244810000000     0.002420000000     0.405044   
C308     C      0.944750000000     0.251230000000     0.502410000000     0.399955   
C309     C      0.760080000000     0.202970000000     0.010020000000     0.393444   
C310     C      0.756610000000     0.327880000000     0.026970000000     0.402553   
C311     C      0.695370000000     0.263440000000     0.014460000000     0.394559   
C312     C      0.820220000000     0.266810000000     0.022600000000     0.399588   
C313     C      0.895390000000     0.278230000000     0.487290000000    -0.0134038  
C314     C      0.894220000000     0.227830000000     0.518940000000    -0.0411069  
C315     C      0.870090000000     0.292310000000     0.008580000000    -0.0160434  
C316     C      0.870700000000     0.242990000000     0.041790000000     0.0906158  
C317     C      0.644600000000     0.247300000000     0.037790000000    -0.0147226  
C318     C      0.646270000000     0.277680000000     0.486750000000    -0.0425921  
C319     C      0.619330000000     0.225340000000     0.024110000000    -0.00896977 
C320     C      0.620000000000     0.256330000000     0.474090000000     0.0920635  
C321     C      0.719170000000     0.398360000000     0.013220000000    -0.021731   
C322     C      0.773740000000     0.397170000000     0.490470000000    -0.0438392  
C323     C      0.730490000000     0.377570000000     0.040810000000    -0.00877904 
C324     C      0.785120000000     0.378570000000     0.518940000000     0.0940666  
C325     C      0.779510000000     0.155920000000     0.981070000000    -0.011962   
C326     C      0.748250000000     0.150060000000     0.030740000000    -0.040935   
C327     C      0.764140000000     0.125440000000     0.468310000000    -0.0103987  
C328     C      0.728750000000     0.123690000000     0.515880000000     0.0926514  
C329     C      0.761060000000     0.480660000000     0.382300000000    -0.0122536  
C330     C      0.713280000000     0.015190000000     0.381000000000    -0.0436581  
C331     C      0.773740000000     0.496320000000     0.352640000000    -0.0106956  
C332     C      0.726130000000     0.032900000000     0.352180000000     0.0914681  
C333     C      0.750500000000     0.053650000000     0.130190000000    -0.0145046  
C334     C      0.791570000000     0.510800000000     0.131230000000    -0.0400681  
C335     C      0.732580000000     0.035300000000     0.104750000000    -0.00971346 
C336     C      0.774600000000     0.493340000000     0.104680000000     0.090741   
C337     C      0.527110000000     0.263910000000     0.390390000000    -0.0122718  
C338     C      0.993280000000     0.215090000000     0.392170000000    -0.0401194  
C339     C      0.504730000000     0.279140000000     0.367070000000    -0.00823888 
C340     C      0.970570000000     0.230220000000     0.368220000000     0.090392   
C341     C      0.010320000000     0.284280000000     0.113820000000    -0.014291   
C342     C      0.977150000000     0.234870000000     0.111840000000    -0.0414955  
C343     C      0.522900000000     0.274050000000     0.145920000000    -0.00867662 
C344     C      0.488630000000     0.225530000000     0.144510000000     0.0907383  
C345     C      0.645850000000     0.040030000000     0.250760000000    -0.0142839  
C346     C      0.649790000000     0.990720000000     0.217580000000    -0.0358748  
C347     C      0.622300000000     0.523320000000     0.272180000000    -0.00851414 
C348     C      0.623860000000     0.475240000000     0.237450000000     0.0913567  
C349     C      0.896860000000     0.490040000000     0.235840000000    -0.0141483  
C350     C      0.899290000000     0.527120000000     0.282060000000    -0.0418793  
C351     C      0.871240000000     0.010480000000     0.221330000000    -0.0153863  
C352     C      0.873110000000     0.047680000000     0.267340000000     0.0903154  
C353     C      0.527460000000     0.389450000000     0.249030000000    -0.0109866  
C354     C      0.989300000000     0.394080000000     0.293720000000    -0.0396395  
C355     C      0.505230000000     0.367310000000     0.231930000000    -0.00728818 
C356     C      0.967340000000     0.369810000000     0.277320000000     0.0889635  
C357     C      0.525480000000     0.144020000000     0.273170000000    -0.0145147  
C358     C      0.976460000000     0.140750000000     0.239940000000    -0.0413432  
C359     C      0.539650000000     0.116550000000     0.254560000000    -0.00768116 
C360     C      0.991970000000     0.114950000000     0.219810000000     0.091645   
C361     C      0.013350000000     0.065770000000     0.744920000000     0.405664   
C362     C      0.508340000000     0.441730000000     0.765500000000     0.399866   
C363     C      0.948070000000     0.007310000000     0.756970000000     0.393443   
C364     C      0.572860000000     0.500220000000     0.754220000000     0.40537    
C365     C      0.498350000000     0.192590000000     0.755360000000     0.396578   
C366     C      0.488060000000     0.318100000000     0.756280000000     0.4052     
C367     C      0.497550000000     0.255290000000     0.693710000000     0.404719   
C368     C      0.489370000000     0.254400000000     0.817720000000     0.404738   
C369     C      0.822070000000     0.025980000000     0.746470000000     0.4007     
C370     C      0.697660000000     0.018140000000     0.736600000000     0.395274   
C371     C      0.765610000000     0.028090000000     0.679950000000     0.399671   
C372     C      0.753400000000     0.016110000000     0.803380000000     0.39877    
C373     C      0.751990000000     0.014530000000     0.554650000000     0.401653   
C374     C      0.741990000000     0.506350000000     0.930590000000     0.398954   
C375     C      0.747770000000     0.074280000000     0.490160000000     0.403636   
C376     C      0.745960000000     0.448230000000     0.996900000000     0.398261   
C377     C      0.504680000000     0.253520000000     0.564860000000     0.399682   
C378     C      0.008520000000     0.242830000000     0.940910000000     0.399139   
C379     C      0.569630000000     0.244810000000     0.502420000000     0.40564    
C380     C      0.944750000000     0.251230000000     0.002410000000     0.395888   
C381     C      0.760080000000     0.202970000000     0.510020000000     0.397075   
C382     C      0.756610000000     0.327880000000     0.526970000000     0.406268   
C383     C      0.695370000000     0.263440000000     0.514460000000     0.39847    
C384     C      0.820220000000     0.266810000000     0.522600000000     0.403507   
C385     C      0.895390000000     0.278230000000     0.987290000000    -0.00718702 
C386     C      0.894220000000     0.227830000000     0.018940000000    -0.0409123  
C387     C      0.870090000000     0.292310000000     0.508580000000    -0.00865625 
C388     C      0.870700000000     0.242990000000     0.541790000000     0.091154   
C389     C      0.644600000000     0.247300000000     0.537800000000    -0.0145015  
C390     C      0.646270000000     0.277680000000     0.986750000000    -0.0409299  
C391     C      0.619330000000     0.225340000000     0.524110000000    -0.00877163 
C392     C      0.620000000000     0.256330000000     0.974090000000     0.0940158  
C393     C      0.719170000000     0.398360000000     0.513220000000    -0.0158849  
C394     C      0.773740000000     0.397170000000     0.990470000000    -0.0410727  
C395     C      0.730490000000     0.377570000000     0.540810000000    -0.00976665 
C396     C      0.785120000000     0.378570000000     0.018940000000     0.0912271  
C397     C      0.779510000000     0.155920000000     0.481070000000    -0.0141965  
C398     C      0.748250000000     0.150060000000     0.530740000000    -0.0411686  
C399     C      0.764140000000     0.125440000000     0.968310000000    -0.0106294  
C400     C      0.728750000000     0.123690000000     0.015880000000     0.0903817  
C401     C      0.761060000000     0.480660000000     0.882300000000    -0.0122581  
C402     C      0.713280000000     0.015190000000     0.881000000000    -0.0436939  
C403     C      0.773740000000     0.496320000000     0.852640000000    -0.0107013  
C404     C      0.726130000000     0.032900000000     0.852180000000     0.0914865  
C405     C      0.750500000000     0.053650000000     0.630190000000    -0.0145124  
C406     C      0.791570000000     0.510800000000     0.631230000000    -0.0401166  
C407     C      0.732580000000     0.035300000000     0.604750000000    -0.0097224  
C408     C      0.774600000000     0.493340000000     0.604680000000     0.0908225  
C409     C      0.527110000000     0.263910000000     0.890390000000    -0.012297   
C410     C      0.993280000000     0.215090000000     0.892170000000    -0.0401657  
C411     C      0.504730000000     0.279140000000     0.867070000000    -0.00823171 
C412     C      0.970570000000     0.230220000000     0.868220000000     0.0904009  
C413     C      0.010320000000     0.284280000000     0.613820000000    -0.0142912  
C414     C      0.977150000000     0.234870000000     0.611840000000    -0.0414815  
C415     C      0.522900000000     0.274050000000     0.645920000000    -0.00866837 
C416     C      0.488630000000     0.225530000000     0.644520000000     0.0907764  
C417     C      0.645850000000     0.040030000000     0.750760000000    -0.014311   
C418     C      0.649790000000     0.990720000000     0.717580000000    -0.0358459  
C419     C      0.622300000000     0.523320000000     0.772180000000    -0.00852617 
C420     C      0.623860000000     0.475240000000     0.737450000000     0.0913564  
C421     C      0.896860000000     0.490040000000     0.735840000000    -0.0141654  
C422     C      0.899290000000     0.527120000000     0.782060000000    -0.0419039  
C423     C      0.871240000000     0.010480000000     0.721330000000    -0.015391   
C424     C      0.873110000000     0.047680000000     0.767340000000     0.0903251  
C425     C      0.527460000000     0.389450000000     0.749030000000    -0.0109914  
C426     C      0.989300000000     0.394080000000     0.793720000000    -0.0396775  
C427     C      0.505230000000     0.367310000000     0.731930000000    -0.00729866 
C428     C      0.967340000000     0.369810000000     0.777320000000     0.0889777  
C429     C      0.525480000000     0.144020000000     0.773170000000    -0.0145328  
C430     C      0.976460000000     0.140750000000     0.739940000000    -0.0413574  
C431     C      0.539650000000     0.116550000000     0.754560000000    -0.00767857 
C432     C      0.991970000000     0.114950000000     0.719810000000     0.0916401  
C433     C      0.013350000000     0.565780000000     0.244920000000     0.405568   
C434     C      0.508340000000     0.941730000000     0.265500000000     0.399865   
C435     C      0.948070000000     0.507310000000     0.256970000000     0.397109   
C436     C      0.572860000000     0.000220000000     0.254220000000     0.399241   
C437     C      0.498350000000     0.692590000000     0.255360000000     0.396579   
C438     C      0.488060000000     0.818100000000     0.256280000000     0.405194   
C439     C      0.497550000000     0.755290000000     0.193710000000     0.404717   
C440     C      0.489370000000     0.754400000000     0.317720000000     0.404734   
C441     C      0.822070000000     0.525980000000     0.246470000000     0.404564   
C442     C      0.697660000000     0.518140000000     0.236600000000     0.398665   
C443     C      0.765610000000     0.528090000000     0.179950000000     0.399889   
C444     C      0.753400000000     0.516110000000     0.303380000000     0.402198   
C445     C      0.751990000000     0.514530000000     0.054650000000     0.402502   
C446     C      0.741990000000     0.006350000000     0.430590000000     0.398324   
C447     C      0.747770000000     0.574280000000     0.990160000000     0.40424    
C448     C      0.745960000000     0.948230000000     0.496900000000     0.397421   
C449     C      0.504680000000     0.753520000000     0.064860000000     0.399405   
C450     C      0.008520000000     0.742830000000     0.440910000000     0.399526   
C451     C      0.569630000000     0.744810000000     0.002420000000     0.405025   
C452     C      0.944750000000     0.751230000000     0.502410000000     0.399934   
C453     C      0.760080000000     0.702970000000     0.010020000000     0.393419   
C454     C      0.756610000000     0.827880000000     0.026970000000     0.402639   
C455     C      0.695370000000     0.763440000000     0.014460000000     0.394541   
C456     C      0.820220000000     0.766810000000     0.022600000000     0.399564   
C457     C      0.895390000000     0.778230000000     0.487290000000    -0.0133893  
C458     C      0.894220000000     0.727830000000     0.518940000000    -0.0411764  
C459     C      0.870090000000     0.792310000000     0.008580000000    -0.0160836  
C460     C      0.870700000000     0.742990000000     0.041790000000     0.0906344  
C461     C      0.644600000000     0.747300000000     0.037790000000    -0.0147335  
C462     C      0.646270000000     0.777680000000     0.486750000000    -0.0426482  
C463     C      0.619330000000     0.725340000000     0.024110000000    -0.00897613 
C464     C      0.620000000000     0.756340000000     0.474090000000     0.0920992  
C465     C      0.719170000000     0.898360000000     0.013220000000    -0.0217807  
C466     C      0.773740000000     0.897170000000     0.490470000000    -0.043888   
C467     C      0.730490000000     0.877570000000     0.040810000000    -0.00874139 
C468     C      0.785120000000     0.878560000000     0.518940000000     0.0941581  
C469     C      0.779510000000     0.655920000000     0.981070000000    -0.0119631  
C470     C      0.748250000000     0.650060000000     0.030740000000    -0.0409525  
C471     C      0.764140000000     0.625440000000     0.468310000000    -0.0103917  
C472     C      0.728750000000     0.623690000000     0.515880000000     0.092673   
C473     C      0.761060000000     0.980660000000     0.382300000000    -0.0114836  
C474     C      0.713280000000     0.515190000000     0.381000000000    -0.0398211  
C475     C      0.773740000000     0.996320000000     0.352640000000    -0.00512182 
C476     C      0.726130000000     0.532900000000     0.352180000000     0.0909317  
C477     C      0.750500000000     0.553650000000     0.130190000000    -0.0140807  
C478     C      0.791570000000     0.010800000000     0.131230000000    -0.0470187  
C479     C      0.732580000000     0.535300000000     0.104750000000    -0.00995767 
C480     C      0.774600000000     0.993340000000     0.104680000000     0.0964237  
C481     C      0.527110000000     0.763910000000     0.390390000000    -0.0123213  
C482     C      0.993280000000     0.715090000000     0.392170000000    -0.0401169  
C483     C      0.504730000000     0.779130000000     0.367070000000    -0.00813557 
C484     C      0.970570000000     0.730220000000     0.368220000000     0.0903389  
C485     C      0.010320000000     0.784280000000     0.113820000000    -0.0143086  
C486     C      0.977150000000     0.734870000000     0.111840000000    -0.0415082  
C487     C      0.522900000000     0.774050000000     0.145920000000    -0.00867503 
C488     C      0.488630000000     0.725530000000     0.144510000000     0.0907456  
C489     C      0.645850000000     0.540030000000     0.250760000000    -0.0147447  
C490     C      0.649790000000     0.490720000000     0.217580000000    -0.0418473  
C491     C      0.622300000000     0.023320000000     0.272180000000    -0.0111787  
C492     C      0.623860000000     0.975240000000     0.237450000000     0.0902205  
C493     C      0.896860000000     0.990040000000     0.235840000000    -0.00780841 
C494     C      0.899290000000     0.027120000000     0.282060000000    -0.0417076  
C495     C      0.871240000000     0.510490000000     0.221330000000    -0.0079048  
C496     C      0.873110000000     0.547680000000     0.267340000000     0.0908337  
C497     C      0.527460000000     0.889450000000     0.249030000000    -0.0109606  
C498     C      0.989300000000     0.894080000000     0.293720000000    -0.0396883  
C499     C      0.505230000000     0.867310000000     0.231930000000    -0.00731032 
C500     C      0.967340000000     0.869820000000     0.277320000000     0.0889572  
C501     C      0.525480000000     0.644020000000     0.273170000000    -0.0145139  
C502     C      0.976460000000     0.640750000000     0.239940000000    -0.0413399  
C503     C      0.539650000000     0.616550000000     0.254560000000    -0.00768184 
C504     C      0.991970000000     0.614950000000     0.219810000000     0.0916748  
C505     C      0.013350000000     0.565780000000     0.744920000000     0.405536   
C506     C      0.508340000000     0.941730000000     0.765500000000     0.399828   
C507     C      0.948070000000     0.507310000000     0.756970000000     0.397075   
C508     C      0.572860000000     0.000220000000     0.754220000000     0.398945   
C509     C      0.498350000000     0.692590000000     0.755360000000     0.396574   
C510     C      0.488060000000     0.818100000000     0.756280000000     0.405194   
C511     C      0.497550000000     0.755290000000     0.693710000000     0.404713   
C512     C      0.489370000000     0.754400000000     0.817720000000     0.404731   
C513     C      0.822070000000     0.525980000000     0.746470000000     0.404562   
C514     C      0.697660000000     0.518140000000     0.736600000000     0.398663   
C515     C      0.765610000000     0.528090000000     0.679950000000     0.399889   
C516     C      0.753400000000     0.516110000000     0.803380000000     0.402192   
C517     C      0.751990000000     0.514530000000     0.554650000000     0.402064   
C518     C      0.741990000000     0.006350000000     0.930590000000     0.398389   
C519     C      0.747770000000     0.574280000000     0.490160000000     0.403783   
C520     C      0.745960000000     0.948230000000     0.996900000000     0.397871   
C521     C      0.504680000000     0.753520000000     0.564860000000     0.399668   
C522     C      0.008520000000     0.742830000000     0.940910000000     0.399121   
C523     C      0.569630000000     0.744810000000     0.502420000000     0.405623   
C524     C      0.944750000000     0.751230000000     0.002410000000     0.395854   
C525     C      0.760080000000     0.702970000000     0.510020000000     0.397065   
C526     C      0.756610000000     0.827880000000     0.526970000000     0.406367   
C527     C      0.695370000000     0.763440000000     0.514460000000     0.398465   
C528     C      0.820220000000     0.766810000000     0.522600000000     0.403496   
C529     C      0.895390000000     0.778230000000     0.987290000000    -0.00714924 
C530     C      0.894220000000     0.727830000000     0.018940000000    -0.0409807  
C531     C      0.870090000000     0.792310000000     0.508580000000    -0.00867078 
C532     C      0.870700000000     0.742990000000     0.541790000000     0.0911747  
C533     C      0.644600000000     0.747300000000     0.537800000000    -0.0145111  
C534     C      0.646270000000     0.777680000000     0.986750000000    -0.0409803  
C535     C      0.619330000000     0.725340000000     0.524110000000    -0.00877776 
C536     C      0.620000000000     0.756340000000     0.974090000000     0.0940574  
C537     C      0.719170000000     0.898360000000     0.513220000000    -0.0159187  
C538     C      0.773740000000     0.897170000000     0.990470000000    -0.0411159  
C539     C      0.730490000000     0.877570000000     0.540810000000    -0.00973114 
C540     C      0.785120000000     0.878560000000     0.018940000000     0.0913122  
C541     C      0.779510000000     0.655920000000     0.481070000000    -0.0142077  
C542     C      0.748250000000     0.650060000000     0.530740000000    -0.0411878  
C543     C      0.764140000000     0.625440000000     0.968310000000    -0.0106237  
C544     C      0.728750000000     0.623690000000     0.015880000000     0.0903904  
C545     C      0.761060000000     0.980660000000     0.882300000000    -0.011487   
C546     C      0.713280000000     0.515190000000     0.881000000000    -0.0398477  
C547     C      0.773740000000     0.996320000000     0.852640000000    -0.00511419 
C548     C      0.726130000000     0.532900000000     0.852180000000     0.090949   
C549     C      0.750500000000     0.553650000000     0.630190000000    -0.0140861  
C550     C      0.791570000000     0.010800000000     0.631230000000    -0.0471055  
C551     C      0.732580000000     0.535300000000     0.604750000000    -0.00996815 
C552     C      0.774600000000     0.993340000000     0.604680000000     0.0965374  
C553     C      0.527110000000     0.763910000000     0.890390000000    -0.0123465  
C554     C      0.993280000000     0.715090000000     0.892170000000    -0.0401634  
C555     C      0.504730000000     0.779130000000     0.867070000000    -0.0081284  
C556     C      0.970570000000     0.730220000000     0.868220000000     0.0903479  
C557     C      0.010320000000     0.784280000000     0.613820000000    -0.0143089  
C558     C      0.977150000000     0.734870000000     0.611840000000    -0.0414943  
C559     C      0.522900000000     0.774050000000     0.645920000000    -0.00866677 
C560     C      0.488630000000     0.725530000000     0.644520000000     0.0907837  
C561     C      0.645850000000     0.540030000000     0.750760000000    -0.0147737  
C562     C      0.649790000000     0.490720000000     0.717580000000    -0.0418414  
C563     C      0.622300000000     0.023320000000     0.772180000000    -0.0112003  
C564     C      0.623860000000     0.975240000000     0.737450000000     0.0902158  
C565     C      0.896860000000     0.990040000000     0.735840000000    -0.00780306 
C566     C      0.899290000000     0.027120000000     0.782060000000    -0.0417316  
C567     C      0.871240000000     0.510490000000     0.721330000000    -0.00788303 
C568     C      0.873110000000     0.547680000000     0.767340000000     0.0908452  
C569     C      0.527460000000     0.889450000000     0.749030000000    -0.0109653  
C570     C      0.989300000000     0.894080000000     0.793720000000    -0.0397264  
C571     C      0.505230000000     0.867310000000     0.731930000000    -0.00732089 
C572     C      0.967340000000     0.869820000000     0.777320000000     0.0889715  
C573     C      0.525480000000     0.644020000000     0.773170000000    -0.0145321  
C574     C      0.976460000000     0.640750000000     0.739940000000    -0.0413542  
C575     C      0.539650000000     0.616550000000     0.754560000000    -0.00767925 
C576     C      0.991970000000     0.614950000000     0.719810000000     0.09167    
Cu1      Cu     0.509710000000     0.498690000000     0.227020000000     0.844959   
Cu2      Cu     0.011340000000     0.008970000000     0.283940000000     0.832434   
Cu3      Cu     0.464410000000     0.252650000000     0.253980000000     0.836869   
Cu4      Cu     0.022120000000     0.258130000000     0.257510000000     0.847059   
Cu5      Cu     0.262300000000     0.493030000000     0.238750000000     0.846359   
Cu6      Cu     0.257400000000     0.051210000000     0.244620000000     0.83474    
Cu7      Cu     0.275780000000     0.010410000000     0.489950000000     0.839238   
Cu8      Cu     0.217910000000     0.512070000000     0.995230000000     0.840374   
Cu9      Cu     0.005350000000     0.218970000000     0.505590000000     0.846926   
Cu10     Cu     0.509100000000     0.277270000000     0.000170000000     0.835786   
Cu11     Cu     0.255650000000     0.261230000000     0.047030000000     0.843379   
Cu12     Cu     0.260070000000     0.269790000000     0.489870000000     0.835717   
Cu13     Cu     0.509710000000     0.498690000000     0.727020000000     0.844899   
Cu14     Cu     0.011340000000     0.008970000000     0.783930000000     0.832494   
Cu15     Cu     0.464410000000     0.252650000000     0.753980000000     0.836859   
Cu16     Cu     0.022120000000     0.258130000000     0.757510000000     0.847058   
Cu17     Cu     0.262300000000     0.493030000000     0.738750000000     0.84635    
Cu18     Cu     0.257400000000     0.051210000000     0.744620000000     0.834718   
Cu19     Cu     0.275780000000     0.010410000000     0.989950000000     0.841949   
Cu20     Cu     0.217910000000     0.512070000000     0.495230000000     0.837269   
Cu21     Cu     0.005350000000     0.218970000000     0.005590000000     0.844189   
Cu22     Cu     0.509100000000     0.277270000000     0.500170000000     0.841151   
Cu23     Cu     0.255650000000     0.261230000000     0.547020000000     0.846592   
Cu24     Cu     0.260070000000     0.269790000000     0.989870000000     0.837637   
Cu25     Cu     0.509710000000     0.998690000000     0.227020000000     0.850274   
Cu26     Cu     0.011340000000     0.508970000000     0.283940000000     0.838463   
Cu27     Cu     0.464410000000     0.752650000000     0.253980000000     0.836865   
Cu28     Cu     0.022120000000     0.758130000000     0.257510000000     0.847061   
Cu29     Cu     0.262300000000     0.993030000000     0.238750000000     0.850725   
Cu30     Cu     0.257400000000     0.551210000000     0.244620000000     0.837952   
Cu31     Cu     0.275780000000     0.510410000000     0.489950000000     0.842064   
Cu32     Cu     0.217910000000     0.012070000000     0.995230000000     0.837727   
Cu33     Cu     0.005350000000     0.718970000000     0.505590000000     0.847018   
Cu34     Cu     0.509100000000     0.777270000000     0.000170000000     0.835918   
Cu35     Cu     0.255650000000     0.761230000000     0.047030000000     0.843241   
Cu36     Cu     0.260070000000     0.769790000000     0.489870000000     0.835754   
Cu37     Cu     0.509710000000     0.998690000000     0.727020000000     0.850234   
Cu38     Cu     0.011340000000     0.508970000000     0.783930000000     0.838545   
Cu39     Cu     0.464410000000     0.752650000000     0.753980000000     0.836855   
Cu40     Cu     0.022120000000     0.758130000000     0.757510000000     0.84706    
Cu41     Cu     0.262300000000     0.993030000000     0.738750000000     0.850733   
Cu42     Cu     0.257400000000     0.551210000000     0.744620000000     0.837942   
Cu43     Cu     0.275780000000     0.510410000000     0.989950000000     0.844795   
Cu44     Cu     0.217910000000     0.012070000000     0.495230000000     0.834644   
Cu45     Cu     0.005350000000     0.718970000000     0.005590000000     0.844268   
Cu46     Cu     0.509100000000     0.777270000000     0.500170000000     0.841302   
Cu47     Cu     0.255650000000     0.761230000000     0.547020000000     0.846465   
Cu48     Cu     0.260070000000     0.769790000000     0.989870000000     0.83768    
Cu49     Cu     0.009710000000     0.498690000000     0.227020000000     0.844716   
Cu50     Cu     0.511340000000     0.008970000000     0.283940000000     0.832652   
Cu51     Cu     0.964410000000     0.252650000000     0.253980000000     0.837222   
Cu52     Cu     0.522120000000     0.258130000000     0.257510000000     0.847205   
Cu53     Cu     0.762300000000     0.493030000000     0.238750000000     0.846358   
Cu54     Cu     0.757400000000     0.051210000000     0.244620000000     0.834738   
Cu55     Cu     0.775780000000     0.010410000000     0.489950000000     0.839259   
Cu56     Cu     0.717910000000     0.512070000000     0.995230000000     0.840373   
Cu57     Cu     0.505350000000     0.218970000000     0.505590000000     0.847153   
Cu58     Cu     0.009100000000     0.277270000000     0.000170000000     0.835438   
Cu59     Cu     0.755650000000     0.261230000000     0.047030000000     0.843385   
Cu60     Cu     0.760070000000     0.269790000000     0.489870000000     0.835716   
Cu61     Cu     0.009710000000     0.498690000000     0.727020000000     0.84466    
Cu62     Cu     0.511340000000     0.008970000000     0.783930000000     0.832708   
Cu63     Cu     0.964410000000     0.252650000000     0.753980000000     0.837204   
Cu64     Cu     0.522120000000     0.258130000000     0.757510000000     0.847201   
Cu65     Cu     0.762300000000     0.493030000000     0.738750000000     0.84635    
Cu66     Cu     0.757400000000     0.051210000000     0.744620000000     0.834717   
Cu67     Cu     0.775780000000     0.010410000000     0.989950000000     0.841962   
Cu68     Cu     0.717910000000     0.512070000000     0.495230000000     0.837272   
Cu69     Cu     0.505350000000     0.218970000000     0.005590000000     0.844415   
Cu70     Cu     0.009100000000     0.277270000000     0.500170000000     0.840786   
Cu71     Cu     0.755650000000     0.261230000000     0.547020000000     0.84659    
Cu72     Cu     0.760070000000     0.269790000000     0.989870000000     0.837632   
Cu73     Cu     0.009710000000     0.998690000000     0.227020000000     0.850017   
Cu74     Cu     0.511340000000     0.508970000000     0.283940000000     0.838702   
Cu75     Cu     0.964410000000     0.752650000000     0.253980000000     0.837217   
Cu76     Cu     0.522120000000     0.758130000000     0.257510000000     0.847207   
Cu77     Cu     0.762300000000     0.993030000000     0.238750000000     0.850723   
Cu78     Cu     0.757400000000     0.551210000000     0.244620000000     0.83795    
Cu79     Cu     0.775780000000     0.510410000000     0.489950000000     0.842083   
Cu80     Cu     0.717910000000     0.012070000000     0.995230000000     0.837724   
Cu81     Cu     0.505350000000     0.718970000000     0.505590000000     0.847247   
Cu82     Cu     0.009100000000     0.777270000000     0.000170000000     0.835569   
Cu83     Cu     0.755650000000     0.761230000000     0.047030000000     0.843246   
Cu84     Cu     0.760070000000     0.769790000000     0.489870000000     0.835753   
Cu85     Cu     0.009710000000     0.998690000000     0.727020000000     0.84998    
Cu86     Cu     0.511340000000     0.508970000000     0.783930000000     0.83878    
Cu87     Cu     0.964410000000     0.752650000000     0.753980000000     0.837199   
Cu88     Cu     0.522120000000     0.758130000000     0.757510000000     0.847203   
Cu89     Cu     0.762300000000     0.993030000000     0.738750000000     0.850731   
Cu90     Cu     0.757400000000     0.551210000000     0.744620000000     0.837941   
Cu91     Cu     0.775780000000     0.510410000000     0.989950000000     0.844806   
Cu92     Cu     0.717910000000     0.012070000000     0.495230000000     0.834645   
Cu93     Cu     0.505350000000     0.718970000000     0.005590000000     0.844496   
Cu94     Cu     0.009100000000     0.777270000000     0.500170000000     0.840936   
Cu95     Cu     0.755650000000     0.761230000000     0.547020000000     0.846463   
Cu96     Cu     0.760070000000     0.769790000000     0.989870000000     0.837675   
H1       H      0.382030000000     0.307130000000     0.026540000000     0.038298   
H2       H      0.411120000000     0.297470000000     0.478810000000     0.0422895  
H3       H      0.384550000000     0.254950000000     0.060520000000     0.0203456  
H4       H      0.409330000000     0.210870000000     0.032070000000     0.0533259  
H5       H      0.354670000000     0.308200000000     0.494590000000     0.0358334  
H6       H      0.383480000000     0.267890000000     0.466470000000     0.0410624  
H7       H      0.381000000000     0.214320000000     0.500820000000     0.049206   
H8       H      0.339920000000     0.226410000000     0.076050000000     0.0969243  
H9       H      0.335880000000     0.207760000000     0.539930000000     0.0922627  
H10      H      0.131120000000     0.204630000000     0.513040000000     0.0399913  
H11      H      0.159390000000     0.233340000000     0.054270000000     0.0428735  
H12      H      0.131850000000     0.236370000000     0.461760000000     0.0217669  
H13      H      0.162100000000     0.284720000000     0.467210000000     0.0538258  
H14      H      0.103900000000     0.216590000000     0.043330000000     0.0375942  
H15      H      0.132760000000     0.266410000000     0.051330000000     0.0418286  
H16      H      0.135510000000     0.299730000000     0.996230000000     0.0486869  
H17      H      0.083520000000     0.258490000000     0.441630000000     0.090915   
H18      H      0.091370000000     0.294310000000     0.960020000000     0.0973295  
H19      H      0.236540000000     0.393450000000     0.060720000000     0.0378044  
H20      H      0.200240000000     0.414440000000     0.021600000000     0.0429608  
H21      H      0.292180000000     0.396270000000     0.036970000000     0.0214097  
H22      H      0.293240000000     0.411930000000     0.481060000000     0.054235   
H23      H      0.211120000000     0.361520000000     0.048370000000     0.0346186  
H24      H      0.209040000000     0.382510000000     0.495030000000     0.0420491  
H25      H      0.266800000000     0.380120000000     0.471820000000     0.0521684  
H26      H      0.319530000000     0.345700000000     0.530720000000     0.089649   
H27      H      0.309440000000     0.345310000000     0.491510000000     0.0950093  
H28      H      0.246040000000     0.132570000000     0.450880000000     0.0377456  
H29      H      0.283890000000     0.172600000000     0.461370000000     0.042092   
H30      H      0.208530000000     0.134820000000     0.503460000000     0.0218914  
H31      H      0.233120000000     0.163190000000     0.047620000000     0.0538697  
H32      H      0.282060000000     0.111240000000     0.455490000000     0.0394013  
H33      H      0.302850000000     0.149420000000     0.990900000000     0.0381603  
H34      H      0.268170000000     0.139390000000     0.043980000000     0.0489529  
H35      H      0.196530000000     0.091170000000     0.534270000000     0.096698   
H36      H      0.234320000000     0.088310000000     0.049860000000     0.0905386  
H37      H      0.291740000000     0.014090000000     0.359670000000     0.0350602  
H38      H      0.281040000000     0.472760000000     0.397200000000     0.041593   
H39      H      0.238580000000     0.054490000000     0.360680000000     0.0220905  
H40      H      0.198840000000     0.031780000000     0.395310000000     0.0527637  
H41      H      0.285920000000     0.478150000000     0.338120000000     0.038981   
H42      H      0.247820000000     0.459070000000     0.375190000000     0.0391031  
H43      H      0.197900000000     0.495430000000     0.373010000000     0.0498084  
H44      H      0.204960000000     0.062380000000     0.319000000000     0.0954525  
H45      H      0.191130000000     0.523750000000     0.318890000000     0.0895317  
H46      H      0.215060000000     0.019580000000     0.116300000000     0.0399455  
H47      H      0.233420000000     0.066750000000     0.145120000000     0.0403729  
H48      H      0.258710000000     0.475770000000     0.116020000000     0.0227548  
H49      H      0.303530000000     0.493410000000     0.146830000000     0.0510645  
H50      H      0.219560000000     0.052360000000     0.089740000000     0.03519    
H51      H      0.266320000000     0.071080000000     0.118630000000     0.0398984  
H52      H      0.310060000000     0.526170000000     0.120780000000     0.0460475  
H53      H      0.285920000000     0.461250000000     0.069270000000     0.093528   
H54      H      0.314020000000     0.490660000000     0.075290000000     0.0965792  
H55      H      0.987410000000     0.293570000000     0.380420000000     0.0390218  
H56      H      0.038400000000     0.282570000000     0.404970000000     0.0392171  
H57      H      0.451660000000     0.242300000000     0.381770000000     0.0205708  
H58      H      0.479780000000     0.199420000000     0.408270000000     0.052809   
H59      H      0.017980000000     0.295550000000     0.351490000000     0.0376003  
H60      H      0.046010000000     0.251720000000     0.376990000000     0.040562   
H61      H      0.510770000000     0.200340000000     0.379380000000     0.048135   
H62      H      0.436250000000     0.213390000000     0.337640000000     0.0973053  
H63      H      0.472620000000     0.195030000000     0.333570000000     0.0920323  
H64      H      0.045070000000     0.260490000000     0.142470000000     0.0411733  
H65      H      0.029100000000     0.297290000000     0.101000000000     0.0401545  
H66      H      0.009030000000     0.209320000000     0.141180000000     0.020948   
H67      H      0.472560000000     0.213010000000     0.097970000000     0.0541994  
H68      H      0.028430000000     0.295560000000     0.160010000000     0.0355048  
H69      H      0.490130000000     0.300660000000     0.117380000000     0.0415964  
H70      H      0.454320000000     0.247560000000     0.114190000000     0.047515   
H71      H      0.972630000000     0.197250000000     0.181210000000     0.0932479  
H72      H      0.444230000000     0.222150000000     0.165420000000     0.0972195  
H73      H      0.135390000000     0.511150000000     0.291270000000     0.0380922  
H74      H      0.159790000000     0.057090000000     0.265000000000     0.039723   
H75      H      0.136100000000     0.460980000000     0.255700000000     0.0212915  
H76      H      0.166490000000     0.472260000000     0.209250000000     0.0532496  
H77      H      0.106480000000     0.041380000000     0.282870000000     0.0383087  
H78      H      0.132640000000     0.053580000000     0.232690000000     0.0411268  
H79      H      0.138730000000     0.001550000000     0.196540000000     0.0439221  
H80      H      0.088480000000     0.441550000000     0.232170000000     0.0906692  
H81      H      0.094750000000     0.964750000000     0.199200000000     0.0969285  
H82      H      0.382710000000     0.027910000000     0.205450000000     0.03821    
H83      H      0.411050000000     0.478950000000     0.216910000000     0.0428675  
H84      H      0.384810000000     0.066690000000     0.253480000000     0.0189208  
H85      H      0.415510000000     0.042750000000     0.295480000000     0.0526599  
H86      H      0.355520000000     0.495420000000     0.206730000000     0.0390097  
H87      H      0.385330000000     0.470580000000     0.249150000000     0.0422109  
H88      H      0.388420000000     0.510090000000     0.298760000000     0.0491338  
H89      H      0.341570000000     0.081560000000     0.283780000000     0.0966813  
H90      H      0.340170000000     0.545770000000     0.303770000000     0.0904807  
H91      H      0.989690000000     0.381830000000     0.216650000000     0.0411394  
H92      H      0.041560000000     0.403220000000     0.231800000000     0.0375597  
H93      H      0.449640000000     0.383700000000     0.263860000000     0.020999   
H94      H      0.474910000000     0.411470000000     0.307100000000     0.0509446  
H95      H      0.018880000000     0.351000000000     0.216560000000     0.0380177  
H96      H      0.044050000000     0.374830000000     0.263080000000     0.0418579  
H97      H      0.504730000000     0.381180000000     0.310470000000     0.0476709  
H98      H      0.432020000000     0.338690000000     0.291030000000     0.0971713  
H99      H      0.466290000000     0.335540000000     0.312790000000     0.0899855  
H100     H      0.054920000000     0.126810000000     0.236000000000     0.0371523  
H101     H      0.044580000000     0.160360000000     0.280660000000     0.0419948  
H102     H      0.504850000000     0.127070000000     0.200510000000     0.0198578  
H103     H      0.460550000000     0.155090000000     0.224850000000     0.0506812  
H104     H      0.054900000000     0.101990000000     0.270140000000     0.0373508  
H105     H      0.014620000000     0.134100000000     0.294740000000     0.0403923  
H106     H      0.461980000000     0.129260000000     0.258460000000     0.0491648  
H107     H      0.476550000000     0.081020000000     0.187850000000     0.0968426  
H108     H      0.456150000000     0.080850000000     0.223160000000     0.0920324  
H109     H      0.382030000000     0.307130000000     0.526540000000     0.0373977  
H110     H      0.411120000000     0.297470000000     0.978810000000     0.0416779  
H111     H      0.384550000000     0.254950000000     0.560520000000     0.0202684  
H112     H      0.409330000000     0.210870000000     0.532070000000     0.0535615  
H113     H      0.354670000000     0.308200000000     0.994590000000     0.0393109  
H114     H      0.383480000000     0.267890000000     0.966470000000     0.0404587  
H115     H      0.381000000000     0.214320000000     0.000820000000     0.0482677  
H116     H      0.339920000000     0.226410000000     0.576050000000     0.0969755  
H117     H      0.335880000000     0.207760000000     0.039930000000     0.0918562  
H118     H      0.131120000000     0.204630000000     0.013040000000     0.0393438  
H119     H      0.159390000000     0.233340000000     0.554270000000     0.0428879  
H120     H      0.131850000000     0.236370000000     0.961760000000     0.022116   
H121     H      0.162100000000     0.284720000000     0.967210000000     0.0538208  
H122     H      0.103900000000     0.216590000000     0.543330000000     0.0376584  
H123     H      0.132760000000     0.266410000000     0.551330000000     0.0421086  
H124     H      0.135510000000     0.299730000000     0.496230000000     0.0479252  
H125     H      0.083520000000     0.258490000000     0.941630000000     0.091496   
H126     H      0.091370000000     0.294310000000     0.460020000000     0.096576   
H127     H      0.236540000000     0.393450000000     0.560720000000     0.0382083  
H128     H      0.200240000000     0.414440000000     0.521600000000     0.0427496  
H129     H      0.292180000000     0.396270000000     0.536970000000     0.0213512  
H130     H      0.293240000000     0.411930000000     0.981060000000     0.0542228  
H131     H      0.211120000000     0.361520000000     0.548370000000     0.0352476  
H132     H      0.209040000000     0.382510000000     0.995030000000     0.0451637  
H133     H      0.266800000000     0.380120000000     0.971830000000     0.0519666  
H134     H      0.319530000000     0.345700000000     0.030720000000     0.0893711  
H135     H      0.309440000000     0.345310000000     0.991510000000     0.0968594  
H136     H      0.246040000000     0.132570000000     0.950880000000     0.0382218  
H137     H      0.283890000000     0.172600000000     0.961370000000     0.0420578  
H138     H      0.208530000000     0.134820000000     0.003460000000     0.0214455  
H139     H      0.233120000000     0.163190000000     0.547620000000     0.0539562  
H140     H      0.282060000000     0.111240000000     0.955490000000     0.0396429  
H141     H      0.302850000000     0.149420000000     0.490910000000     0.0375625  
H142     H      0.268170000000     0.139390000000     0.543980000000     0.0494931  
H143     H      0.196530000000     0.091170000000     0.034270000000     0.0959283  
H144     H      0.234320000000     0.088310000000     0.549860000000     0.0910883  
H145     H      0.291740000000     0.014090000000     0.859670000000     0.0351212  
H146     H      0.281040000000     0.472760000000     0.897200000000     0.0416839  
H147     H      0.238580000000     0.054490000000     0.860680000000     0.0221385  
H148     H      0.198840000000     0.031780000000     0.895310000000     0.0529163  
H149     H      0.285920000000     0.478150000000     0.838120000000     0.0390144  
H150     H      0.247820000000     0.459070000000     0.875190000000     0.0391464  
H151     H      0.197900000000     0.495430000000     0.873010000000     0.0499011  
H152     H      0.204960000000     0.062380000000     0.819000000000     0.0954849  
H153     H      0.191130000000     0.523750000000     0.818890000000     0.089553   
H154     H      0.215060000000     0.019580000000     0.616300000000     0.0400543  
H155     H      0.233420000000     0.066750000000     0.645120000000     0.0404031  
H156     H      0.258710000000     0.475770000000     0.616020000000     0.0228166  
H157     H      0.303530000000     0.493410000000     0.646830000000     0.0511272  
H158     H      0.219560000000     0.052360000000     0.589740000000     0.0353466  
H159     H      0.266320000000     0.071080000000     0.618630000000     0.0399965  
H160     H      0.310060000000     0.526170000000     0.620780000000     0.046195   
H161     H      0.285920000000     0.461250000000     0.569270000000     0.0939955  
H162     H      0.314020000000     0.490660000000     0.575290000000     0.0969707  
H163     H      0.987410000000     0.293570000000     0.880420000000     0.0391612  
H164     H      0.038400000000     0.282570000000     0.904970000000     0.0394162  
H165     H      0.451660000000     0.242300000000     0.881760000000     0.0207378  
H166     H      0.479780000000     0.199420000000     0.908270000000     0.0531761  
H167     H      0.017980000000     0.295550000000     0.851480000000     0.0376589  
H168     H      0.046010000000     0.251720000000     0.876990000000     0.040657   
H169     H      0.510770000000     0.200340000000     0.879380000000     0.048296   
H170     H      0.436250000000     0.213390000000     0.837640000000     0.0974146  
H171     H      0.472620000000     0.195030000000     0.833570000000     0.0921312  
H172     H      0.045070000000     0.260490000000     0.642470000000     0.0411981  
H173     H      0.029100000000     0.297290000000     0.601000000000     0.040295   
H174     H      0.009030000000     0.209320000000     0.641180000000     0.0209832  
H175     H      0.472560000000     0.213010000000     0.597970000000     0.0542831  
H176     H      0.028430000000     0.295560000000     0.660010000000     0.0355443  
H177     H      0.490130000000     0.300660000000     0.617380000000     0.0417266  
H178     H      0.454320000000     0.247560000000     0.614190000000     0.0475672  
H179     H      0.972630000000     0.197250000000     0.681210000000     0.0932577  
H180     H      0.444230000000     0.222150000000     0.665420000000     0.097237   
H181     H      0.135390000000     0.511150000000     0.791270000000     0.0381427  
H182     H      0.159790000000     0.057090000000     0.764990000000     0.039755   
H183     H      0.136100000000     0.460980000000     0.755700000000     0.0213125  
H184     H      0.166490000000     0.472260000000     0.709240000000     0.0532715  
H185     H      0.106480000000     0.041380000000     0.782870000000     0.0383681  
H186     H      0.132640000000     0.053580000000     0.732690000000     0.041154   
H187     H      0.138730000000     0.001550000000     0.696540000000     0.0439676  
H188     H      0.088480000000     0.441550000000     0.732170000000     0.0906968  
H189     H      0.094750000000     0.964750000000     0.699200000000     0.0970093  
H190     H      0.382710000000     0.027910000000     0.705450000000     0.0382567  
H191     H      0.411050000000     0.478950000000     0.716910000000     0.0429219  
H192     H      0.384810000000     0.066690000000     0.753480000000     0.0189343  
H193     H      0.415510000000     0.042750000000     0.795480000000     0.0527388  
H194     H      0.355520000000     0.495420000000     0.706720000000     0.039029   
H195     H      0.385330000000     0.470580000000     0.749150000000     0.0422356  
H196     H      0.388420000000     0.510090000000     0.798760000000     0.0492033  
H197     H      0.341570000000     0.081560000000     0.783780000000     0.0967061  
H198     H      0.340170000000     0.545770000000     0.803770000000     0.0905196  
H199     H      0.989690000000     0.381830000000     0.716650000000     0.0411805  
H200     H      0.041560000000     0.403220000000     0.731800000000     0.0375943  
H201     H      0.449640000000     0.383700000000     0.763860000000     0.0210153  
H202     H      0.474910000000     0.411470000000     0.807100000000     0.0510383  
H203     H      0.018880000000     0.351000000000     0.716560000000     0.0380482  
H204     H      0.044050000000     0.374830000000     0.763080000000     0.0418826  
H205     H      0.504730000000     0.381180000000     0.810470000000     0.0477558  
H206     H      0.432020000000     0.338690000000     0.791030000000     0.0971935  
H207     H      0.466290000000     0.335540000000     0.812800000000     0.0899933  
H208     H      0.054920000000     0.126810000000     0.736000000000     0.0371708  
H209     H      0.044580000000     0.160360000000     0.780660000000     0.0420355  
H210     H      0.504850000000     0.127070000000     0.700510000000     0.0198955  
H211     H      0.460550000000     0.155090000000     0.724850000000     0.0506965  
H212     H      0.054900000000     0.101990000000     0.770140000000     0.0373929  
H213     H      0.014620000000     0.134100000000     0.794740000000     0.0404688  
H214     H      0.461980000000     0.129260000000     0.758460000000     0.0491918  
H215     H      0.476550000000     0.081020000000     0.687850000000     0.0969308  
H216     H      0.456150000000     0.080850000000     0.723160000000     0.0920516  
H217     H      0.382030000000     0.807130000000     0.026540000000     0.0383836  
H218     H      0.411120000000     0.797460000000     0.478810000000     0.0423872  
H219     H      0.384550000000     0.754960000000     0.060520000000     0.0203701  
H220     H      0.409330000000     0.710870000000     0.032070000000     0.0533928  
H221     H      0.354670000000     0.808200000000     0.494590000000     0.035896   
H222     H      0.383480000000     0.767890000000     0.466470000000     0.0410854  
H223     H      0.381000000000     0.714320000000     0.500820000000     0.0492554  
H224     H      0.339920000000     0.726410000000     0.076050000000     0.0969423  
H225     H      0.335880000000     0.707760000000     0.539930000000     0.0922864  
H226     H      0.131120000000     0.704630000000     0.513040000000     0.0400319  
H227     H      0.159390000000     0.733340000000     0.054270000000     0.0428923  
H228     H      0.131850000000     0.736370000000     0.461760000000     0.0217917  
H229     H      0.162100000000     0.784720000000     0.467210000000     0.0538854  
H230     H      0.103900000000     0.716590000000     0.043330000000     0.0376366  
H231     H      0.132760000000     0.766410000000     0.051330000000     0.0418693  
H232     H      0.135510000000     0.799730000000     0.996230000000     0.0487838  
H233     H      0.083520000000     0.758490000000     0.441630000000     0.0909399  
H234     H      0.091370000000     0.794310000000     0.960020000000     0.0974238  
H235     H      0.236540000000     0.893450000000     0.060720000000     0.0379923  
H236     H      0.200240000000     0.914440000000     0.021600000000     0.0433304  
H237     H      0.292180000000     0.896270000000     0.036970000000     0.0215502  
H238     H      0.293240000000     0.911930000000     0.481060000000     0.0545346  
H239     H      0.211120000000     0.861510000000     0.048370000000     0.0347191  
H240     H      0.209040000000     0.882510000000     0.495030000000     0.0422116  
H241     H      0.266800000000     0.880120000000     0.471820000000     0.0522963  
H242     H      0.319530000000     0.845710000000     0.530720000000     0.0897479  
H243     H      0.309440000000     0.845310000000     0.491510000000     0.0950727  
H244     H      0.246040000000     0.632570000000     0.450880000000     0.0377602  
H245     H      0.283890000000     0.672600000000     0.461370000000     0.0421088  
H246     H      0.208530000000     0.634820000000     0.503460000000     0.0219248  
H247     H      0.233120000000     0.663190000000     0.047620000000     0.0538885  
H248     H      0.282060000000     0.611240000000     0.455490000000     0.039468   
H249     H      0.302850000000     0.649420000000     0.990900000000     0.0382286  
H250     H      0.268170000000     0.639390000000     0.043980000000     0.0489979  
H251     H      0.196530000000     0.591170000000     0.534270000000     0.0968141  
H252     H      0.234320000000     0.588310000000     0.049860000000     0.0905451  
H253     H      0.291740000000     0.514090000000     0.359670000000     0.0379234  
H254     H      0.281040000000     0.972770000000     0.397200000000     0.0424557  
H255     H      0.238580000000     0.554490000000     0.360680000000     0.0222436  
H256     H      0.198840000000     0.531780000000     0.395310000000     0.0522556  
H257     H      0.285920000000     0.978150000000     0.338120000000     0.0385108  
H258     H      0.247820000000     0.959070000000     0.375190000000     0.0394508  
H259     H      0.197900000000     0.995420000000     0.373010000000     0.0528769  
H260     H      0.204960000000     0.562380000000     0.319000000000     0.0954481  
H261     H      0.191130000000     0.023750000000     0.318890000000     0.0889401  
H262     H      0.215060000000     0.519580000000     0.116300000000     0.0406946  
H263     H      0.233420000000     0.566750000000     0.145120000000     0.0403813  
H264     H      0.258710000000     0.975770000000     0.116020000000     0.0224354  
H265     H      0.303530000000     0.993410000000     0.146830000000     0.0545243  
H266     H      0.219560000000     0.552360000000     0.089740000000     0.0353501  
H267     H      0.266320000000     0.571080000000     0.118630000000     0.0398634  
H268     H      0.310060000000     0.026170000000     0.120780000000     0.0466896  
H269     H      0.285920000000     0.961240000000     0.069270000000     0.0941145  
H270     H      0.314020000000     0.990660000000     0.075290000000     0.0978339  
H271     H      0.987410000000     0.793570000000     0.380420000000     0.0390657  
H272     H      0.038400000000     0.782570000000     0.404970000000     0.0392936  
H273     H      0.451660000000     0.742300000000     0.381770000000     0.0206051  
H274     H      0.479780000000     0.699420000000     0.408270000000     0.0528646  
H275     H      0.017980000000     0.795550000000     0.351490000000     0.0376283  
H276     H      0.046010000000     0.751720000000     0.376990000000     0.0405919  
H277     H      0.510770000000     0.700340000000     0.379380000000     0.0481712  
H278     H      0.436250000000     0.713390000000     0.337640000000     0.0972967  
H279     H      0.472620000000     0.695030000000     0.333570000000     0.0920732  
H280     H      0.045070000000     0.760490000000     0.142470000000     0.041196   
H281     H      0.029100000000     0.797290000000     0.101000000000     0.040235   
H282     H      0.009030000000     0.709320000000     0.141180000000     0.0209899  
H283     H      0.472560000000     0.713010000000     0.097970000000     0.0542558  
H284     H      0.028430000000     0.795560000000     0.160010000000     0.0355443  
H285     H      0.490130000000     0.800660000000     0.117380000000     0.0416688  
H286     H      0.454320000000     0.747560000000     0.114190000000     0.0475376  
H287     H      0.972630000000     0.697250000000     0.181210000000     0.0932777  
H288     H      0.444230000000     0.722150000000     0.165420000000     0.0972404  
H289     H      0.135390000000     0.011150000000     0.291270000000     0.0378424  
H290     H      0.159790000000     0.557090000000     0.265000000000     0.0398249  
H291     H      0.136100000000     0.960980000000     0.255700000000     0.0221204  
H292     H      0.166490000000     0.972260000000     0.209250000000     0.0526348  
H293     H      0.106480000000     0.541380000000     0.282870000000     0.0378867  
H294     H      0.132640000000     0.553590000000     0.232690000000     0.0415306  
H295     H      0.138730000000     0.501550000000     0.196540000000     0.0472779  
H296     H      0.088480000000     0.941550000000     0.232170000000     0.0909618  
H297     H      0.094750000000     0.464760000000     0.199200000000     0.0963697  
H298     H      0.382710000000     0.527910000000     0.205450000000     0.0373413  
H299     H      0.411050000000     0.978950000000     0.216910000000     0.0421125  
H300     H      0.384810000000     0.566690000000     0.253480000000     0.0188332  
H301     H      0.415510000000     0.542750000000     0.295480000000     0.0528107  
H302     H      0.355520000000     0.995420000000     0.206730000000     0.0424956  
H303     H      0.385330000000     0.970580000000     0.249150000000     0.0416239  
H304     H      0.388420000000     0.010090000000     0.298760000000     0.0483332  
H305     H      0.341570000000     0.581560000000     0.283780000000     0.0967101  
H306     H      0.340170000000     0.045770000000     0.303770000000     0.0901594  
H307     H      0.989690000000     0.881830000000     0.216650000000     0.0412335  
H308     H      0.041560000000     0.903220000000     0.231800000000     0.0376737  
H309     H      0.449640000000     0.883700000000     0.263860000000     0.021141   
H310     H      0.474910000000     0.911470000000     0.307100000000     0.0513305  
H311     H      0.018880000000     0.851000000000     0.216560000000     0.0380676  
H312     H      0.044050000000     0.874830000000     0.263080000000     0.0419611  
H313     H      0.504730000000     0.881180000000     0.310470000000     0.0478646  
H314     H      0.432020000000     0.838690000000     0.291030000000     0.0972406  
H315     H      0.466290000000     0.835540000000     0.312790000000     0.0900389  
H316     H      0.054920000000     0.626810000000     0.236000000000     0.037226   
H317     H      0.044580000000     0.660360000000     0.280660000000     0.0420104  
H318     H      0.504850000000     0.627070000000     0.200510000000     0.0199477  
H319     H      0.460550000000     0.655100000000     0.224850000000     0.0507064  
H320     H      0.054900000000     0.601990000000     0.270140000000     0.0374317  
H321     H      0.014620000000     0.634090000000     0.294740000000     0.0404275  
H322     H      0.461980000000     0.629260000000     0.258460000000     0.0491842  
H323     H      0.476550000000     0.581020000000     0.187850000000     0.0972645  
H324     H      0.456150000000     0.580850000000     0.223160000000     0.0922423  
H325     H      0.382030000000     0.807130000000     0.526540000000     0.0374801  
H326     H      0.411120000000     0.797460000000     0.978810000000     0.0417715  
H327     H      0.384550000000     0.754960000000     0.560520000000     0.0202926  
H328     H      0.409330000000     0.710870000000     0.532070000000     0.0536301  
H329     H      0.354670000000     0.808200000000     0.994590000000     0.0393845  
H330     H      0.383480000000     0.767890000000     0.966470000000     0.0404794  
H331     H      0.381000000000     0.714320000000     0.000820000000     0.0483123  
H332     H      0.339920000000     0.726410000000     0.576050000000     0.0969937  
H333     H      0.335880000000     0.707760000000     0.039930000000     0.0918777  
H334     H      0.131120000000     0.704630000000     0.013040000000     0.0393808  
H335     H      0.159390000000     0.733340000000     0.554270000000     0.0429067  
H336     H      0.131850000000     0.736370000000     0.961760000000     0.022143   
H337     H      0.162100000000     0.784720000000     0.967210000000     0.0538802  
H338     H      0.103900000000     0.716590000000     0.543330000000     0.0377016  
H339     H      0.132760000000     0.766410000000     0.551330000000     0.0421502  
H340     H      0.135510000000     0.799730000000     0.496230000000     0.0480205  
H341     H      0.083520000000     0.758490000000     0.941630000000     0.0915231  
H342     H      0.091370000000     0.794310000000     0.460020000000     0.0966682  
H343     H      0.236540000000     0.893450000000     0.560720000000     0.038398   
H344     H      0.200240000000     0.914440000000     0.521600000000     0.0431199  
H345     H      0.292180000000     0.896270000000     0.536970000000     0.0214928  
H346     H      0.293240000000     0.911930000000     0.981060000000     0.0545224  
H347     H      0.211120000000     0.861510000000     0.548370000000     0.0353501  
H348     H      0.209040000000     0.882510000000     0.995030000000     0.045334   
H349     H      0.266800000000     0.880120000000     0.971830000000     0.0520945  
H350     H      0.319530000000     0.845710000000     0.030720000000     0.0894693  
H351     H      0.309440000000     0.845310000000     0.991510000000     0.0969277  
H352     H      0.246040000000     0.632570000000     0.950880000000     0.0382384  
H353     H      0.283890000000     0.672600000000     0.961370000000     0.0420743  
H354     H      0.208530000000     0.634820000000     0.003460000000     0.0214761  
H355     H      0.233120000000     0.663190000000     0.547620000000     0.0539756  
H356     H      0.282060000000     0.611240000000     0.955490000000     0.0397105  
H357     H      0.302850000000     0.649420000000     0.490910000000     0.0376289  
H358     H      0.268170000000     0.639390000000     0.543980000000     0.0495414  
H359     H      0.196530000000     0.591170000000     0.034270000000     0.0960388  
H360     H      0.234320000000     0.588310000000     0.549860000000     0.0910984  
H361     H      0.291740000000     0.514090000000     0.859670000000     0.0379918  
H362     H      0.281040000000     0.972770000000     0.897200000000     0.0425482  
H363     H      0.238580000000     0.554490000000     0.860680000000     0.022292   
H364     H      0.198840000000     0.531780000000     0.895310000000     0.0524075  
H365     H      0.285920000000     0.978150000000     0.838120000000     0.0385431  
H366     H      0.247820000000     0.959070000000     0.875190000000     0.039495   
H367     H      0.197900000000     0.995420000000     0.873010000000     0.052976   
H368     H      0.204960000000     0.562380000000     0.819000000000     0.0954805  
H369     H      0.191130000000     0.023750000000     0.818890000000     0.0889595  
H370     H      0.215060000000     0.519580000000     0.616300000000     0.0408083  
H371     H      0.233420000000     0.566750000000     0.645120000000     0.0404115  
H372     H      0.258710000000     0.975770000000     0.616020000000     0.022495   
H373     H      0.303530000000     0.993410000000     0.646830000000     0.0546047  
H374     H      0.219560000000     0.552360000000     0.589740000000     0.0355087  
H375     H      0.266320000000     0.571080000000     0.618630000000     0.039962   
H376     H      0.310060000000     0.026170000000     0.620780000000     0.0468396  
H377     H      0.285920000000     0.961240000000     0.569270000000     0.0945864  
H378     H      0.314020000000     0.990660000000     0.575290000000     0.0982322  
H379     H      0.987410000000     0.793570000000     0.880420000000     0.0392055  
H380     H      0.038400000000     0.782570000000     0.904970000000     0.0394933  
H381     H      0.451660000000     0.742300000000     0.881760000000     0.0207727  
H382     H      0.479780000000     0.699420000000     0.908270000000     0.053233   
H383     H      0.017980000000     0.795550000000     0.851480000000     0.037687   
H384     H      0.046010000000     0.751720000000     0.876990000000     0.0406872  
H385     H      0.510770000000     0.700340000000     0.879380000000     0.0483328  
H386     H      0.436250000000     0.713390000000     0.837640000000     0.0974063  
H387     H      0.472620000000     0.695030000000     0.833570000000     0.0921724  
H388     H      0.045070000000     0.760490000000     0.642470000000     0.0412209  
H389     H      0.029100000000     0.797290000000     0.601000000000     0.0403761  
H390     H      0.009030000000     0.709320000000     0.641180000000     0.0210255  
H391     H      0.472560000000     0.713010000000     0.597970000000     0.0543402  
H392     H      0.028430000000     0.795560000000     0.660010000000     0.035584   
H393     H      0.490130000000     0.800660000000     0.617380000000     0.0417996  
H394     H      0.454320000000     0.747560000000     0.614190000000     0.0475901  
H395     H      0.972630000000     0.697250000000     0.681210000000     0.0932877  
H396     H      0.444230000000     0.722150000000     0.665420000000     0.097258   
H397     H      0.135390000000     0.011150000000     0.791270000000     0.0378919  
H398     H      0.159790000000     0.557090000000     0.764990000000     0.0398573  
H399     H      0.136100000000     0.960980000000     0.755700000000     0.022144   
H400     H      0.166490000000     0.972260000000     0.709240000000     0.0526551  
H401     H      0.106480000000     0.541380000000     0.782870000000     0.0379446  
H402     H      0.132640000000     0.553590000000     0.732690000000     0.0415596  
H403     H      0.138730000000     0.501550000000     0.696540000000     0.0473377  
H404     H      0.088480000000     0.941550000000     0.732170000000     0.0909905  
H405     H      0.094750000000     0.464760000000     0.699200000000     0.0964482  
H406     H      0.382710000000     0.527910000000     0.705450000000     0.0373861  
H407     H      0.411050000000     0.978950000000     0.716910000000     0.0421644  
H408     H      0.384810000000     0.566690000000     0.753480000000     0.0188466  
H409     H      0.415510000000     0.542750000000     0.795480000000     0.0528903  
H410     H      0.355520000000     0.995420000000     0.706720000000     0.0425266  
H411     H      0.385330000000     0.970580000000     0.749150000000     0.0416463  
H412     H      0.388420000000     0.010090000000     0.798760000000     0.0483997  
H413     H      0.341570000000     0.581560000000     0.783780000000     0.0967351  
H414     H      0.340170000000     0.045770000000     0.803770000000     0.0901972  
H415     H      0.989690000000     0.881830000000     0.716650000000     0.0412751  
H416     H      0.041560000000     0.903220000000     0.731800000000     0.0377087  
H417     H      0.449640000000     0.883700000000     0.763860000000     0.0211577  
H418     H      0.474910000000     0.911470000000     0.807100000000     0.0514251  
H419     H      0.018880000000     0.851000000000     0.716560000000     0.0380984  
H420     H      0.044050000000     0.874830000000     0.763080000000     0.041986   
H421     H      0.504730000000     0.881180000000     0.810470000000     0.0479499  
H422     H      0.432020000000     0.838690000000     0.791030000000     0.097263   
H423     H      0.466290000000     0.835540000000     0.812800000000     0.0900469  
H424     H      0.054920000000     0.626810000000     0.736000000000     0.0372449  
H425     H      0.044580000000     0.660360000000     0.780660000000     0.0420512  
H426     H      0.504850000000     0.627070000000     0.700510000000     0.0199861  
H427     H      0.460550000000     0.655100000000     0.724850000000     0.0507219  
H428     H      0.054900000000     0.601990000000     0.770140000000     0.0374742  
H429     H      0.014620000000     0.634090000000     0.794740000000     0.0405043  
H430     H      0.461980000000     0.629260000000     0.758460000000     0.0492114  
H431     H      0.476550000000     0.581020000000     0.687850000000     0.0973552  
H432     H      0.456150000000     0.580850000000     0.723160000000     0.0922624  
H433     H      0.882030000000     0.307130000000     0.026540000000     0.0383182  
H434     H      0.911120000000     0.297470000000     0.478810000000     0.0423292  
H435     H      0.884550000000     0.254950000000     0.060520000000     0.0203593  
H436     H      0.909330000000     0.210870000000     0.032070000000     0.0533567  
H437     H      0.854670000000     0.308200000000     0.494590000000     0.0358423  
H438     H      0.883480000000     0.267890000000     0.466470000000     0.0410735  
H439     H      0.881000000000     0.214320000000     0.500820000000     0.0492197  
H440     H      0.839920000000     0.226410000000     0.076050000000     0.0969285  
H441     H      0.835880000000     0.207760000000     0.539930000000     0.0922669  
H442     H      0.631120000000     0.204630000000     0.513040000000     0.0399952  
H443     H      0.659390000000     0.233340000000     0.054270000000     0.0428752  
H444     H      0.631850000000     0.236370000000     0.461760000000     0.0217676  
H445     H      0.662100000000     0.284720000000     0.467210000000     0.0538271  
H446     H      0.603900000000     0.216590000000     0.043330000000     0.0376012  
H447     H      0.632760000000     0.266410000000     0.051330000000     0.0418322  
H448     H      0.635510000000     0.299730000000     0.996230000000     0.0486912  
H449     H      0.583520000000     0.258490000000     0.441630000000     0.0909116  
H450     H      0.591370000000     0.294310000000     0.960020000000     0.0973358  
H451     H      0.736540000000     0.393450000000     0.060720000000     0.0378101  
H452     H      0.700230000000     0.414440000000     0.021600000000     0.0429439  
H453     H      0.792180000000     0.396270000000     0.036970000000     0.0214163  
H454     H      0.793240000000     0.411930000000     0.481060000000     0.0542444  
H455     H      0.711120000000     0.361520000000     0.048370000000     0.034624   
H456     H      0.709040000000     0.382510000000     0.495030000000     0.0420417  
H457     H      0.766800000000     0.380120000000     0.471820000000     0.0521704  
H458     H      0.819530000000     0.345700000000     0.530720000000     0.0896559  
H459     H      0.809440000000     0.345310000000     0.491510000000     0.0950135  
H460     H      0.746040000000     0.132570000000     0.450880000000     0.037749   
H461     H      0.783900000000     0.172600000000     0.461370000000     0.0420849  
H462     H      0.708530000000     0.134820000000     0.503460000000     0.0218932  
H463     H      0.733120000000     0.163190000000     0.047620000000     0.0538707  
H464     H      0.782060000000     0.111240000000     0.455490000000     0.039409   
H465     H      0.802850000000     0.149420000000     0.990900000000     0.0381616  
H466     H      0.768170000000     0.139390000000     0.043980000000     0.0489578  
H467     H      0.696530000000     0.091170000000     0.534270000000     0.0967022  
H468     H      0.734320000000     0.088310000000     0.049860000000     0.0905412  
H469     H      0.791740000000     0.014090000000     0.359670000000     0.0350694  
H470     H      0.781040000000     0.472760000000     0.397200000000     0.0415998  
H471     H      0.738580000000     0.054490000000     0.360680000000     0.0221059  
H472     H      0.698840000000     0.031780000000     0.395310000000     0.0527644  
H473     H      0.785920000000     0.478150000000     0.338120000000     0.0389862  
H474     H      0.747820000000     0.459070000000     0.375190000000     0.0391046  
H475     H      0.697900000000     0.495430000000     0.373010000000     0.0498078  
H476     H      0.704960000000     0.062380000000     0.319000000000     0.0954375  
H477     H      0.691130000000     0.523750000000     0.318890000000     0.0895542  
H478     H      0.715060000000     0.019580000000     0.116300000000     0.0399474  
H479     H      0.733420000000     0.066750000000     0.145120000000     0.0403735  
H480     H      0.758710000000     0.475770000000     0.116020000000     0.0227574  
H481     H      0.803530000000     0.493410000000     0.146830000000     0.0510608  
H482     H      0.719560000000     0.052360000000     0.089740000000     0.0351924  
H483     H      0.766320000000     0.071080000000     0.118630000000     0.0399027  
H484     H      0.810070000000     0.526170000000     0.120780000000     0.0460333  
H485     H      0.785920000000     0.461250000000     0.069270000000     0.0935337  
H486     H      0.814020000000     0.490660000000     0.075290000000     0.0965955  
H487     H      0.487410000000     0.293570000000     0.380420000000     0.038683   
H488     H      0.538400000000     0.282570000000     0.404970000000     0.0392756  
H489     H      0.951660000000     0.242300000000     0.381770000000     0.0206226  
H490     H      0.979780000000     0.199420000000     0.408270000000     0.0527779  
H491     H      0.517980000000     0.295550000000     0.351490000000     0.0375367  
H492     H      0.546010000000     0.251720000000     0.376990000000     0.0406134  
H493     H      0.010770000000     0.200340000000     0.379380000000     0.0478232  
H494     H      0.936250000000     0.213390000000     0.337640000000     0.0973135  
H495     H      0.972620000000     0.195030000000     0.333570000000     0.0921103  
H496     H      0.545070000000     0.260490000000     0.142470000000     0.0411939  
H497     H      0.529100000000     0.297290000000     0.101000000000     0.0400626  
H498     H      0.509030000000     0.209320000000     0.141180000000     0.0212186  
H499     H      0.972560000000     0.213010000000     0.097970000000     0.0543178  
H500     H      0.528430000000     0.295560000000     0.160010000000     0.0355619  
H501     H      0.990130000000     0.300660000000     0.117380000000     0.0419342  
H502     H      0.954320000000     0.247560000000     0.114190000000     0.0475557  
H503     H      0.472630000000     0.197250000000     0.181210000000     0.0932011  
H504     H      0.944230000000     0.222150000000     0.165420000000     0.0972811  
H505     H      0.635390000000     0.511150000000     0.291270000000     0.0380967  
H506     H      0.659790000000     0.057090000000     0.265000000000     0.0397255  
H507     H      0.636100000000     0.460980000000     0.255700000000     0.0212928  
H508     H      0.666490000000     0.472260000000     0.209250000000     0.0532515  
H509     H      0.606480000000     0.041380000000     0.282870000000     0.0383138  
H510     H      0.632640000000     0.053580000000     0.232690000000     0.0411293  
H511     H      0.638730000000     0.001550000000     0.196540000000     0.0439232  
H512     H      0.588480000000     0.441550000000     0.232170000000     0.0906759  
H513     H      0.594750000000     0.964750000000     0.199200000000     0.0969402  
H514     H      0.882710000000     0.027910000000     0.205450000000     0.0382253  
H515     H      0.911050000000     0.478950000000     0.216910000000     0.0429003  
H516     H      0.884810000000     0.066690000000     0.253480000000     0.0189297  
H517     H      0.915510000000     0.042750000000     0.295480000000     0.0526972  
H518     H      0.855520000000     0.495420000000     0.206730000000     0.0390185  
H519     H      0.885330000000     0.470580000000     0.249150000000     0.0422261  
H520     H      0.888420000000     0.510090000000     0.298760000000     0.0491551  
H521     H      0.841570000000     0.081560000000     0.283780000000     0.0966858  
H522     H      0.840170000000     0.545770000000     0.303770000000     0.0904866  
H523     H      0.489690000000     0.381830000000     0.216650000000     0.0407879  
H524     H      0.541560000000     0.403220000000     0.231800000000     0.0376205  
H525     H      0.949640000000     0.383700000000     0.263860000000     0.021057   
H526     H      0.974910000000     0.411470000000     0.307100000000     0.0509182  
H527     H      0.518880000000     0.351000000000     0.216560000000     0.0379526  
H528     H      0.544050000000     0.374830000000     0.263080000000     0.0419143  
H529     H      0.004730000000     0.381180000000     0.310470000000     0.0473495  
H530     H      0.932020000000     0.338690000000     0.291030000000     0.0971771  
H531     H      0.966290000000     0.335540000000     0.312790000000     0.0900528  
H532     H      0.554920000000     0.126810000000     0.236000000000     0.037168   
H533     H      0.544580000000     0.160360000000     0.280660000000     0.0420216  
H534     H      0.004850000000     0.127070000000     0.200510000000     0.019552   
H535     H      0.960550000000     0.155090000000     0.224850000000     0.050684   
H536     H      0.554900000000     0.101990000000     0.270140000000     0.0373534  
H537     H      0.514620000000     0.134100000000     0.294740000000     0.0404652  
H538     H      0.961980000000     0.129260000000     0.258460000000     0.0491973  
H539     H      0.976550000000     0.081020000000     0.187850000000     0.0969724  
H540     H      0.956150000000     0.080850000000     0.223160000000     0.0920913  
H541     H      0.882030000000     0.307130000000     0.526540000000     0.0374209  
H542     H      0.911120000000     0.297470000000     0.978810000000     0.0417191  
H543     H      0.884550000000     0.254950000000     0.560520000000     0.020282   
H544     H      0.909330000000     0.210870000000     0.532070000000     0.0535911  
H545     H      0.854670000000     0.308200000000     0.994590000000     0.0393061  
H546     H      0.883480000000     0.267890000000     0.966470000000     0.040472   
H547     H      0.881000000000     0.214320000000     0.000820000000     0.0482846  
H548     H      0.839920000000     0.226410000000     0.576050000000     0.0969794  
H549     H      0.835880000000     0.207760000000     0.039930000000     0.0918616  
H550     H      0.631120000000     0.204630000000     0.013040000000     0.0393479  
H551     H      0.659390000000     0.233340000000     0.554270000000     0.0428896  
H552     H      0.631850000000     0.236370000000     0.961760000000     0.0221163  
H553     H      0.662100000000     0.284720000000     0.967210000000     0.0538221  
H554     H      0.603900000000     0.216590000000     0.543330000000     0.0376654  
H555     H      0.632760000000     0.266410000000     0.551330000000     0.0421122  
H556     H      0.635510000000     0.299730000000     0.496230000000     0.0479298  
H557     H      0.583520000000     0.258490000000     0.941630000000     0.0914928  
H558     H      0.591370000000     0.294310000000     0.460020000000     0.0965822  
H559     H      0.736540000000     0.393450000000     0.560720000000     0.0382132  
H560     H      0.700230000000     0.414440000000     0.521600000000     0.0427347  
H561     H      0.792180000000     0.396270000000     0.536970000000     0.0213577  
H562     H      0.793240000000     0.411930000000     0.981060000000     0.0542317  
H563     H      0.711120000000     0.361520000000     0.548370000000     0.0352521  
H564     H      0.709040000000     0.382510000000     0.995030000000     0.0451511  
H565     H      0.766800000000     0.380120000000     0.971830000000     0.0519693  
H566     H      0.819530000000     0.345700000000     0.030720000000     0.089379   
H567     H      0.809440000000     0.345310000000     0.991510000000     0.0968578  
H568     H      0.746040000000     0.132570000000     0.950880000000     0.0382244  
H569     H      0.783900000000     0.172600000000     0.961370000000     0.0420505  
H570     H      0.708530000000     0.134820000000     0.003460000000     0.0214476  
H571     H      0.733120000000     0.163190000000     0.547620000000     0.0539571  
H572     H      0.782060000000     0.111240000000     0.955490000000     0.0396497  
H573     H      0.802850000000     0.149420000000     0.490910000000     0.0375664  
H574     H      0.768170000000     0.139390000000     0.543980000000     0.0494966  
H575     H      0.696530000000     0.091170000000     0.034270000000     0.0959333  
H576     H      0.734320000000     0.088310000000     0.549860000000     0.0910898  
H577     H      0.791740000000     0.014090000000     0.859670000000     0.0351301  
H578     H      0.781040000000     0.472760000000     0.897200000000     0.0416903  
H579     H      0.738580000000     0.054490000000     0.860680000000     0.0221537  
H580     H      0.698840000000     0.031780000000     0.895310000000     0.0529169  
H581     H      0.785920000000     0.478150000000     0.838120000000     0.0390193  
H582     H      0.747820000000     0.459070000000     0.875190000000     0.0391478  
H583     H      0.697900000000     0.495430000000     0.873010000000     0.0499004  
H584     H      0.704960000000     0.062380000000     0.819000000000     0.0954698  
H585     H      0.691130000000     0.523750000000     0.818890000000     0.0895756  
H586     H      0.715060000000     0.019580000000     0.616300000000     0.0400562  
H587     H      0.733420000000     0.066750000000     0.645120000000     0.0404036  
H588     H      0.758710000000     0.475770000000     0.616020000000     0.022819   
H589     H      0.803530000000     0.493410000000     0.646830000000     0.0511232  
H590     H      0.719560000000     0.052360000000     0.589740000000     0.0353489  
H591     H      0.766320000000     0.071080000000     0.618630000000     0.0400005  
H592     H      0.810070000000     0.526170000000     0.620780000000     0.0461801  
H593     H      0.785920000000     0.461250000000     0.569270000000     0.0939999  
H594     H      0.814020000000     0.490660000000     0.575290000000     0.0969856  
H595     H      0.487410000000     0.293570000000     0.880420000000     0.0388322  
H596     H      0.538400000000     0.282570000000     0.904970000000     0.0394733  
H597     H      0.951660000000     0.242300000000     0.881760000000     0.0207873  
H598     H      0.979780000000     0.199420000000     0.908270000000     0.0531441  
H599     H      0.517980000000     0.295550000000     0.851480000000     0.0375973  
H600     H      0.546010000000     0.251720000000     0.876990000000     0.040707   
H601     H      0.010770000000     0.200340000000     0.879380000000     0.0479925  
H602     H      0.936250000000     0.213390000000     0.837640000000     0.0974223  
H603     H      0.972620000000     0.195030000000     0.833570000000     0.0922072  
H604     H      0.545070000000     0.260490000000     0.642470000000     0.0412183  
H605     H      0.529100000000     0.297290000000     0.601000000000     0.0402049  
H606     H      0.509030000000     0.209320000000     0.641180000000     0.021249   
H607     H      0.972560000000     0.213010000000     0.597970000000     0.0543989  
H608     H      0.528430000000     0.295560000000     0.660010000000     0.0356005  
H609     H      0.990130000000     0.300660000000     0.617380000000     0.0420578  
H610     H      0.954320000000     0.247560000000     0.614190000000     0.0476069  
H611     H      0.472630000000     0.197250000000     0.681210000000     0.0932124  
H612     H      0.944230000000     0.222150000000     0.665420000000     0.0972984  
H613     H      0.635390000000     0.511150000000     0.791270000000     0.0381472  
H614     H      0.659790000000     0.057090000000     0.764990000000     0.0397575  
H615     H      0.636100000000     0.460980000000     0.755700000000     0.0213137  
H616     H      0.666490000000     0.472260000000     0.709240000000     0.0532733  
H617     H      0.606480000000     0.041380000000     0.782870000000     0.0383732  
H618     H      0.632640000000     0.053580000000     0.732690000000     0.0411565  
H619     H      0.638730000000     0.001550000000     0.696540000000     0.0439686  
H620     H      0.588480000000     0.441550000000     0.732170000000     0.0907035  
H621     H      0.594750000000     0.964750000000     0.699200000000     0.0970209  
H622     H      0.882710000000     0.027910000000     0.705450000000     0.0382715  
H623     H      0.911050000000     0.478950000000     0.716910000000     0.0429539  
H624     H      0.884810000000     0.066690000000     0.753480000000     0.018943   
H625     H      0.915510000000     0.042750000000     0.795480000000     0.0527749  
H626     H      0.855520000000     0.495420000000     0.706720000000     0.0390375  
H627     H      0.885330000000     0.470580000000     0.749150000000     0.0422504  
H628     H      0.888420000000     0.510090000000     0.798760000000     0.0492237  
H629     H      0.841570000000     0.081560000000     0.783780000000     0.0967105  
H630     H      0.840170000000     0.545770000000     0.803770000000     0.0905253  
H631     H      0.489690000000     0.381830000000     0.716650000000     0.0408361  
H632     H      0.541560000000     0.403220000000     0.731800000000     0.0376541  
H633     H      0.949640000000     0.383700000000     0.763860000000     0.0210721  
H634     H      0.974910000000     0.411470000000     0.807100000000     0.0510121  
H635     H      0.518880000000     0.351000000000     0.716560000000     0.0379846  
H636     H      0.544050000000     0.374830000000     0.763080000000     0.0419379  
H637     H      0.004730000000     0.381180000000     0.810470000000     0.0474411  
H638     H      0.932020000000     0.338690000000     0.791030000000     0.097199   
H639     H      0.966290000000     0.335540000000     0.812800000000     0.0900588  
H640     H      0.554920000000     0.126810000000     0.736000000000     0.0371862  
H641     H      0.544580000000     0.160360000000     0.780660000000     0.0420617  
H642     H      0.004850000000     0.127070000000     0.700510000000     0.0195952  
H643     H      0.960550000000     0.155090000000     0.724850000000     0.0506993  
H644     H      0.554900000000     0.101990000000     0.770140000000     0.0373955  
H645     H      0.514620000000     0.134100000000     0.794740000000     0.0405405  
H646     H      0.961980000000     0.129260000000     0.758460000000     0.0492235  
H647     H      0.976550000000     0.081020000000     0.687850000000     0.0970578  
H648     H      0.956150000000     0.080850000000     0.723160000000     0.0921092  
H649     H      0.882030000000     0.807130000000     0.026540000000     0.0384034  
H650     H      0.911120000000     0.797460000000     0.478810000000     0.0424265  
H651     H      0.884550000000     0.754960000000     0.060520000000     0.0203837  
H652     H      0.909330000000     0.710870000000     0.032070000000     0.0534235  
H653     H      0.854670000000     0.808200000000     0.494590000000     0.0359047  
H654     H      0.883480000000     0.767890000000     0.466470000000     0.0410964  
H655     H      0.881000000000     0.714320000000     0.500820000000     0.049269   
H656     H      0.839920000000     0.726410000000     0.076050000000     0.0969464  
H657     H      0.835880000000     0.707760000000     0.539930000000     0.0922905  
H658     H      0.631120000000     0.704630000000     0.513040000000     0.0400359  
H659     H      0.659390000000     0.733340000000     0.054270000000     0.0428939  
H660     H      0.631850000000     0.736370000000     0.461760000000     0.0217926  
H661     H      0.662100000000     0.784720000000     0.467210000000     0.0538868  
H662     H      0.603900000000     0.716590000000     0.043330000000     0.0376439  
H663     H      0.632760000000     0.766410000000     0.051330000000     0.041873   
H664     H      0.635510000000     0.799730000000     0.996230000000     0.0487882  
H665     H      0.583520000000     0.758490000000     0.441630000000     0.0909366  
H666     H      0.591370000000     0.794310000000     0.960020000000     0.0974302  
H667     H      0.736540000000     0.893450000000     0.060720000000     0.037998   
H668     H      0.700230000000     0.914440000000     0.021600000000     0.0433138  
H669     H      0.792180000000     0.896270000000     0.036970000000     0.0215566  
H670     H      0.793240000000     0.911930000000     0.481060000000     0.0545436  
H671     H      0.711120000000     0.861510000000     0.048370000000     0.0347245  
H672     H      0.709040000000     0.882510000000     0.495030000000     0.0422044  
H673     H      0.766800000000     0.880120000000     0.471820000000     0.0522983  
H674     H      0.819530000000     0.845710000000     0.530720000000     0.0897547  
H675     H      0.809440000000     0.845310000000     0.491510000000     0.0950768  
H676     H      0.746040000000     0.632570000000     0.450880000000     0.0377636  
H677     H      0.783900000000     0.672600000000     0.461370000000     0.0421018  
H678     H      0.708530000000     0.634820000000     0.503460000000     0.0219267  
H679     H      0.733120000000     0.663190000000     0.047620000000     0.0538894  
H680     H      0.782060000000     0.611240000000     0.455490000000     0.0394756  
H681     H      0.802850000000     0.649420000000     0.990900000000     0.0382298  
H682     H      0.768170000000     0.639390000000     0.043980000000     0.0490028  
H683     H      0.696530000000     0.591170000000     0.534270000000     0.0968185  
H684     H      0.734320000000     0.588310000000     0.049860000000     0.0905477  
H685     H      0.791740000000     0.514090000000     0.359670000000     0.0379313  
H686     H      0.781040000000     0.972770000000     0.397200000000     0.0424617  
H687     H      0.738580000000     0.554490000000     0.360680000000     0.022259   
H688     H      0.698840000000     0.531780000000     0.395310000000     0.0522562  
H689     H      0.785920000000     0.978150000000     0.338120000000     0.0385158  
H690     H      0.747820000000     0.959070000000     0.375190000000     0.0394522  
H691     H      0.697900000000     0.995420000000     0.373010000000     0.0528776  
H692     H      0.704960000000     0.562380000000     0.319000000000     0.0954332  
H693     H      0.691130000000     0.023750000000     0.318890000000     0.0889622  
H694     H      0.715060000000     0.519580000000     0.116300000000     0.040697   
H695     H      0.733420000000     0.566750000000     0.145120000000     0.040382   
H696     H      0.758710000000     0.975770000000     0.116020000000     0.0224385  
H697     H      0.803530000000     0.993410000000     0.146830000000     0.0545179  
H698     H      0.719560000000     0.552360000000     0.089740000000     0.0353528  
H699     H      0.766320000000     0.571080000000     0.118630000000     0.0398676  
H700     H      0.810070000000     0.026170000000     0.120780000000     0.0466739  
H701     H      0.785920000000     0.961240000000     0.069270000000     0.0941199  
H702     H      0.814020000000     0.990660000000     0.075290000000     0.0978489  
H703     H      0.487410000000     0.793570000000     0.380420000000     0.0387282  
H704     H      0.538400000000     0.782570000000     0.404970000000     0.0393522  
H705     H      0.951660000000     0.742300000000     0.381770000000     0.0206568  
H706     H      0.979780000000     0.699420000000     0.408270000000     0.0528332  
H707     H      0.517980000000     0.795550000000     0.351490000000     0.0375651  
H708     H      0.546010000000     0.751720000000     0.376990000000     0.0406433  
H709     H      0.010770000000     0.700340000000     0.379380000000     0.047859   
H710     H      0.936250000000     0.713390000000     0.337640000000     0.0973049  
H711     H      0.972620000000     0.695030000000     0.333570000000     0.0921511  
H712     H      0.545070000000     0.760490000000     0.142470000000     0.0412165  
H713     H      0.529100000000     0.797290000000     0.101000000000     0.0401434  
H714     H      0.509030000000     0.709320000000     0.141180000000     0.0212609  
H715     H      0.972560000000     0.713010000000     0.097970000000     0.0543738  
H716     H      0.528430000000     0.795560000000     0.160010000000     0.0356014  
H717     H      0.990130000000     0.800660000000     0.117380000000     0.0420051  
H718     H      0.954320000000     0.747560000000     0.114190000000     0.0475782  
H719     H      0.472630000000     0.697250000000     0.181210000000     0.0932311  
H720     H      0.944230000000     0.722150000000     0.165420000000     0.0973019  
H721     H      0.635390000000     0.011150000000     0.291270000000     0.0378468  
H722     H      0.659790000000     0.557090000000     0.265000000000     0.0398276  
H723     H      0.636100000000     0.960980000000     0.255700000000     0.0221227  
H724     H      0.666490000000     0.972260000000     0.209250000000     0.0526357  
H725     H      0.606480000000     0.541380000000     0.282870000000     0.0378911  
H726     H      0.632640000000     0.553590000000     0.232690000000     0.041534   
H727     H      0.638730000000     0.501550000000     0.196540000000     0.0472832  
H728     H      0.588480000000     0.941550000000     0.232170000000     0.0909691  
H729     H      0.594750000000     0.464760000000     0.199200000000     0.0963807  
H730     H      0.882710000000     0.527910000000     0.205450000000     0.0373577  
H731     H      0.911050000000     0.978950000000     0.216910000000     0.042146   
H732     H      0.884810000000     0.566690000000     0.253480000000     0.0188422  
H733     H      0.915510000000     0.542750000000     0.295480000000     0.052848   
H734     H      0.855520000000     0.995420000000     0.206730000000     0.0424991  
H735     H      0.885330000000     0.970580000000     0.249150000000     0.0416399  
H736     H      0.888420000000     0.010090000000     0.298760000000     0.0483555  
H737     H      0.841570000000     0.581560000000     0.283780000000     0.0967146  
H738     H      0.840170000000     0.045770000000     0.303770000000     0.0901656  
H739     H      0.489690000000     0.881830000000     0.216650000000     0.0408844  
H740     H      0.541560000000     0.903220000000     0.231800000000     0.0377344  
H741     H      0.949640000000     0.883700000000     0.263860000000     0.0211983  
H742     H      0.974910000000     0.911470000000     0.307100000000     0.0513031  
H743     H      0.518880000000     0.851000000000     0.216560000000     0.0380031  
H744     H      0.544050000000     0.874830000000     0.263080000000     0.0420174  
H745     H      0.004730000000     0.881180000000     0.310470000000     0.0475442  
H746     H      0.932020000000     0.838690000000     0.291030000000     0.0972462  
H747     H      0.966290000000     0.835540000000     0.312790000000     0.0901056  
H748     H      0.554920000000     0.626810000000     0.236000000000     0.0372418  
H749     H      0.544580000000     0.660360000000     0.280660000000     0.0420373  
H750     H      0.004850000000     0.627070000000     0.200510000000     0.0196403  
H751     H      0.960550000000     0.655100000000     0.224850000000     0.0507092  
H752     H      0.554900000000     0.601990000000     0.270140000000     0.0374345  
H753     H      0.514620000000     0.634090000000     0.294740000000     0.0405012  
H754     H      0.961980000000     0.629260000000     0.258460000000     0.0492168  
H755     H      0.976550000000     0.581020000000     0.187850000000     0.0973935  
H756     H      0.956150000000     0.580850000000     0.223160000000     0.0923009  
H757     H      0.882030000000     0.807130000000     0.526540000000     0.0375031  
H758     H      0.911120000000     0.797460000000     0.978810000000     0.0418123  
H759     H      0.884550000000     0.754960000000     0.560520000000     0.0203062  
H760     H      0.909330000000     0.710870000000     0.532070000000     0.0536595  
H761     H      0.854670000000     0.808200000000     0.994590000000     0.0393794  
H762     H      0.883480000000     0.767890000000     0.966470000000     0.0404926  
H763     H      0.881000000000     0.714320000000     0.000820000000     0.0483291  
H764     H      0.839920000000     0.726410000000     0.576050000000     0.0969976  
H765     H      0.835880000000     0.707760000000     0.039930000000     0.0918831  
H766     H      0.631120000000     0.704630000000     0.013040000000     0.0393851  
H767     H      0.659390000000     0.733340000000     0.554270000000     0.0429084  
H768     H      0.631850000000     0.736370000000     0.961760000000     0.0221434  
H769     H      0.662100000000     0.784720000000     0.967210000000     0.0538816  
H770     H      0.603900000000     0.716590000000     0.543330000000     0.0377088  
H771     H      0.632760000000     0.766410000000     0.551330000000     0.0421537  
H772     H      0.635510000000     0.799730000000     0.496230000000     0.0480252  
H773     H      0.583520000000     0.758490000000     0.941630000000     0.0915199  
H774     H      0.591370000000     0.794310000000     0.460020000000     0.0966745  
H775     H      0.736540000000     0.893450000000     0.560720000000     0.0384029  
H776     H      0.700230000000     0.914440000000     0.521600000000     0.0431052  
H777     H      0.792180000000     0.896270000000     0.536970000000     0.0214991  
H778     H      0.793240000000     0.911930000000     0.981060000000     0.0545309  
H779     H      0.711120000000     0.861510000000     0.548370000000     0.0353547  
H780     H      0.709040000000     0.882510000000     0.995030000000     0.0453215  
H781     H      0.766800000000     0.880120000000     0.971830000000     0.0520972  
H782     H      0.819530000000     0.845710000000     0.030720000000     0.0894771  
H783     H      0.809440000000     0.845310000000     0.991510000000     0.096926   
H784     H      0.746040000000     0.632570000000     0.950880000000     0.0382411  
H785     H      0.783900000000     0.672600000000     0.961370000000     0.042067   
H786     H      0.708530000000     0.634820000000     0.003460000000     0.0214783  
H787     H      0.733120000000     0.663190000000     0.547620000000     0.0539765  
H788     H      0.782060000000     0.611240000000     0.955490000000     0.0397172  
H789     H      0.802850000000     0.649420000000     0.490910000000     0.0376327  
H790     H      0.768170000000     0.639390000000     0.543980000000     0.0495448  
H791     H      0.696530000000     0.591170000000     0.034270000000     0.0960442  
H792     H      0.734320000000     0.588310000000     0.549860000000     0.0910998  
H793     H      0.791740000000     0.514090000000     0.859670000000     0.0379993  
H794     H      0.781040000000     0.972770000000     0.897200000000     0.0425538  
H795     H      0.738580000000     0.554490000000     0.860680000000     0.0223072  
H796     H      0.698840000000     0.531780000000     0.895310000000     0.052408   
H797     H      0.785920000000     0.978150000000     0.838120000000     0.0385478  
H798     H      0.747820000000     0.959070000000     0.875190000000     0.0394963  
H799     H      0.697900000000     0.995420000000     0.873010000000     0.0529768  
H800     H      0.704960000000     0.562380000000     0.819000000000     0.0954656  
H801     H      0.691130000000     0.023750000000     0.818890000000     0.0889815  
H802     H      0.715060000000     0.519580000000     0.616300000000     0.0408106  
H803     H      0.733420000000     0.566750000000     0.645120000000     0.0404123  
H804     H      0.758710000000     0.975770000000     0.616020000000     0.0224981  
H805     H      0.803530000000     0.993410000000     0.646830000000     0.054598   
H806     H      0.719560000000     0.552360000000     0.589740000000     0.0355112  
H807     H      0.766320000000     0.571080000000     0.618630000000     0.0399658  
H808     H      0.810070000000     0.026170000000     0.620780000000     0.0468232  
H809     H      0.785920000000     0.961240000000     0.569270000000     0.0945906  
H810     H      0.814020000000     0.990660000000     0.575290000000     0.0982458  
H811     H      0.487410000000     0.793570000000     0.880420000000     0.0388779  
H812     H      0.538400000000     0.782570000000     0.904970000000     0.0395505  
H813     H      0.951660000000     0.742300000000     0.881760000000     0.0208221  
H814     H      0.979780000000     0.699420000000     0.908270000000     0.0532009  
H815     H      0.517980000000     0.795550000000     0.851480000000     0.0376259  
H816     H      0.546010000000     0.751720000000     0.876990000000     0.0407372  
H817     H      0.010770000000     0.700340000000     0.879380000000     0.0480289  
H818     H      0.936250000000     0.713390000000     0.837640000000     0.097414   
H819     H      0.972620000000     0.695030000000     0.833570000000     0.0922481  
H820     H      0.545070000000     0.760490000000     0.642470000000     0.0412411  
H821     H      0.529100000000     0.797290000000     0.601000000000     0.0402864  
H822     H      0.509030000000     0.709320000000     0.641180000000     0.0212918  
H823     H      0.972560000000     0.713010000000     0.597970000000     0.0544557  
H824     H      0.528430000000     0.795560000000     0.660010000000     0.0356403  
H825     H      0.990130000000     0.800660000000     0.617380000000     0.0421293  
H826     H      0.954320000000     0.747560000000     0.614190000000     0.0476297  
H827     H      0.472630000000     0.697250000000     0.681210000000     0.0932425  
H828     H      0.944230000000     0.722150000000     0.665420000000     0.0973194  
H829     H      0.635390000000     0.011150000000     0.791270000000     0.0378962  
H830     H      0.659790000000     0.557090000000     0.764990000000     0.03986    
H831     H      0.636100000000     0.960980000000     0.755700000000     0.0221463  
H832     H      0.666490000000     0.972260000000     0.709240000000     0.0526559  
H833     H      0.606480000000     0.541380000000     0.782870000000     0.037949   
H834     H      0.632640000000     0.553590000000     0.732690000000     0.0415629  
H835     H      0.638730000000     0.501550000000     0.696540000000     0.047343   
H836     H      0.588480000000     0.941550000000     0.732170000000     0.0909977  
H837     H      0.594750000000     0.464760000000     0.699200000000     0.0964592  
H838     H      0.882710000000     0.527910000000     0.705450000000     0.0374021  
H839     H      0.911050000000     0.978950000000     0.716910000000     0.0421972  
H840     H      0.884810000000     0.566690000000     0.753480000000     0.0188554  
H841     H      0.915510000000     0.542750000000     0.795480000000     0.0529263  
H842     H      0.855520000000     0.995420000000     0.706720000000     0.0425298  
H843     H      0.885330000000     0.970580000000     0.749150000000     0.0416619  
H844     H      0.888420000000     0.010090000000     0.798760000000     0.0484212  
H845     H      0.841570000000     0.581560000000     0.783780000000     0.0967394  
H846     H      0.840170000000     0.045770000000     0.803770000000     0.0902031  
H847     H      0.489690000000     0.881830000000     0.716650000000     0.0409331  
H848     H      0.541560000000     0.903220000000     0.731800000000     0.0377685  
H849     H      0.949640000000     0.883700000000     0.763860000000     0.0212139  
H850     H      0.974910000000     0.911470000000     0.807100000000     0.0513979  
H851     H      0.518880000000     0.851000000000     0.716560000000     0.0380354  
H852     H      0.544050000000     0.874830000000     0.763080000000     0.0420413  
H853     H      0.004730000000     0.881180000000     0.810470000000     0.0476361  
H854     H      0.932020000000     0.838690000000     0.791030000000     0.0972684  
H855     H      0.966290000000     0.835540000000     0.812800000000     0.0901118  
H856     H      0.554920000000     0.626810000000     0.736000000000     0.0372605  
H857     H      0.544580000000     0.660360000000     0.780660000000     0.0420776  
H858     H      0.004850000000     0.627070000000     0.700510000000     0.0196842  
H859     H      0.960550000000     0.655100000000     0.724850000000     0.0507247  
H860     H      0.554900000000     0.601990000000     0.770140000000     0.037477   
H861     H      0.514620000000     0.634090000000     0.794740000000     0.0405768  
H862     H      0.961980000000     0.629260000000     0.758460000000     0.0492431  
H863     H      0.976550000000     0.581020000000     0.687850000000     0.0974813  
H864     H      0.956150000000     0.580850000000     0.723160000000     0.0923197  
N1       N      0.352200000000     0.267200000000     0.524690000000    -0.180284   
N2       N      0.412720000000     0.252820000000     0.503410000000    -0.163102   
N3       N      0.351390000000     0.218020000000     0.056040000000    -0.198471   
N4       N      0.101520000000     0.242790000000     0.000290000000    -0.181153   
N5       N      0.163330000000     0.261810000000     0.012410000000    -0.163065   
N6       N      0.100850000000     0.273350000000     0.450960000000    -0.198968   
N7       N      0.258700000000     0.359710000000     0.531520000000    -0.180391   
N8       N      0.245920000000     0.415910000000     0.499510000000    -0.162499   
N9       N      0.312880000000     0.359370000000     0.511380000000    -0.200277   
N10      N      0.248490000000     0.106530000000     0.992830000000    -0.177177   
N11      N      0.260880000000     0.170810000000     0.006190000000    -0.164025   
N12      N      0.216830000000     0.103320000000     0.041100000000    -0.198865   
N13      N      0.248930000000     0.512760000000     0.334830000000    -0.17864    
N14      N      0.239490000000     0.501990000000     0.399020000000    -0.162861   
N15      N      0.199400000000     0.042550000000     0.332610000000    -0.198812   
N16      N      0.254730000000     0.015730000000     0.086500000000    -0.181395   
N17      N      0.269430000000     0.031160000000     0.148440000000    -0.162869   
N18      N      0.297340000000     0.475710000000     0.085610000000    -0.198167   
N19      N      0.487720000000     0.254430000000     0.349580000000    -0.180425   
N20      N      0.510050000000     0.240270000000     0.409160000000    -0.164539   
N21      N      0.456390000000     0.205130000000     0.349070000000    -0.198171   
N22      N      0.999760000000     0.253790000000     0.161940000000    -0.17941    
N23      N      0.999580000000     0.256330000000     0.096260000000    -0.162546   
N24      N      0.463850000000     0.207900000000     0.160890000000    -0.198804   
N25      N      0.104880000000     0.499730000000     0.253730000000    -0.179864   
N26      N      0.165690000000     0.516090000000     0.235250000000    -0.163493   
N27      N      0.105080000000     0.453380000000     0.218370000000    -0.198586   
N28      N      0.354070000000     0.027910000000     0.245840000000    -0.178608   
N29      N      0.415990000000     0.008970000000     0.257650000000    -0.164628   
N30      N      0.354470000000     0.062330000000     0.292360000000    -0.198455   
N31      N      0.985750000000     0.350280000000     0.254880000000    -0.179493   
N32      N      0.009210000000     0.409820000000     0.270220000000    -0.164513   
N33      N      0.450940000000     0.350850000000     0.301030000000    -0.198432   
N34      N      0.514870000000     0.097560000000     0.239470000000    -0.180081   
N35      N      0.500830000000     0.160330000000     0.255030000000    -0.163805   
N36      N      0.467490000000     0.094650000000     0.206200000000    -0.198499   
N37      N      0.352200000000     0.267200000000     0.024690000000    -0.179147   
N38      N      0.412720000000     0.252820000000     0.003410000000    -0.16441    
N39      N      0.351390000000     0.218020000000     0.556040000000    -0.19854    
N40      N      0.101520000000     0.242790000000     0.500300000000    -0.179747   
N41      N      0.163330000000     0.261810000000     0.512410000000    -0.16221    
N42      N      0.100850000000     0.273350000000     0.950960000000    -0.19918    
N43      N      0.258700000000     0.359710000000     0.031520000000    -0.180064   
N44      N      0.245920000000     0.415910000000     0.999510000000    -0.160881   
N45      N      0.312880000000     0.359370000000     0.011380000000    -0.201949   
N46      N      0.248490000000     0.106530000000     0.492830000000    -0.178775   
N47      N      0.260880000000     0.170810000000     0.506190000000    -0.162953   
N48      N      0.216830000000     0.103320000000     0.541100000000    -0.199104   
N49      N      0.248930000000     0.512760000000     0.834830000000    -0.178639   
N50      N      0.239490000000     0.501990000000     0.899020000000    -0.162848   
N51      N      0.199400000000     0.042550000000     0.832610000000    -0.198783   
N52      N      0.254730000000     0.015730000000     0.586500000000    -0.181245   
N53      N      0.269430000000     0.031160000000     0.648440000000    -0.162849   
N54      N      0.297340000000     0.475710000000     0.585610000000    -0.198202   
N55      N      0.487720000000     0.254430000000     0.849580000000    -0.180416   
N56      N      0.510050000000     0.240270000000     0.909160000000    -0.164332   
N57      N      0.456390000000     0.205130000000     0.849060000000    -0.198176   
N58      N      0.999760000000     0.253790000000     0.661940000000    -0.179425   
N59      N      0.999580000000     0.256330000000     0.596260000000    -0.162563   
N60      N      0.463850000000     0.207900000000     0.660890000000    -0.1988     
N61      N      0.104880000000     0.499730000000     0.753730000000    -0.179802   
N62      N      0.165690000000     0.516090000000     0.735250000000    -0.163487   
N63      N      0.105080000000     0.453380000000     0.718370000000    -0.198578   
N64      N      0.354070000000     0.027910000000     0.745840000000    -0.178607   
N65      N      0.415990000000     0.008970000000     0.757650000000    -0.164611   
N66      N      0.354470000000     0.062330000000     0.792360000000    -0.198434   
N67      N      0.985750000000     0.350280000000     0.754880000000    -0.179494   
N68      N      0.009210000000     0.409820000000     0.770220000000    -0.164483   
N69      N      0.450940000000     0.350850000000     0.801030000000    -0.198378   
N70      N      0.514870000000     0.097560000000     0.739470000000    -0.180066   
N71      N      0.500830000000     0.160330000000     0.755030000000    -0.163798   
N72      N      0.467490000000     0.094650000000     0.706200000000    -0.198491   
N73      N      0.352200000000     0.767200000000     0.524690000000    -0.180282   
N74      N      0.412720000000     0.752830000000     0.503410000000    -0.163082   
N75      N      0.351390000000     0.718020000000     0.056040000000    -0.198458   
N76      N      0.101520000000     0.742790000000     0.000290000000    -0.181145   
N77      N      0.163330000000     0.761810000000     0.012410000000    -0.163051   
N78      N      0.100850000000     0.773350000000     0.450960000000    -0.198973   
N79      N      0.258700000000     0.859710000000     0.531520000000    -0.18042    
N80      N      0.245920000000     0.915910000000     0.499510000000    -0.162286   
N81      N      0.312880000000     0.859370000000     0.511380000000    -0.200275   
N82      N      0.248490000000     0.606530000000     0.992830000000    -0.177183   
N83      N      0.260880000000     0.670810000000     0.006190000000    -0.164023   
N84      N      0.216830000000     0.603320000000     0.041100000000    -0.198861   
N85      N      0.248930000000     0.012760000000     0.334830000000    -0.180098   
N86      N      0.239490000000     0.001990000000     0.399020000000    -0.163668   
N87      N      0.199400000000     0.542550000000     0.332610000000    -0.19865    
N88      N      0.254730000000     0.515730000000     0.086500000000    -0.179673   
N89      N      0.269430000000     0.531160000000     0.148440000000    -0.163434   
N90      N      0.297340000000     0.975710000000     0.085610000000    -0.198712   
N91      N      0.487720000000     0.754430000000     0.349580000000    -0.180434   
N92      N      0.510050000000     0.740270000000     0.409160000000    -0.164522   
N93      N      0.456390000000     0.705120000000     0.349070000000    -0.198145   
N94      N      0.999760000000     0.753790000000     0.161940000000    -0.17941    
N95      N      0.999580000000     0.756330000000     0.096260000000    -0.16253    
N96      N      0.463850000000     0.707900000000     0.160890000000    -0.198782   
N97      N      0.104880000000     0.999730000000     0.253730000000    -0.176069   
N98      N      0.165690000000     0.016090000000     0.235250000000    -0.164958   
N99      N      0.105080000000     0.953380000000     0.218370000000    -0.198331   
N100     N      0.354070000000     0.527910000000     0.245840000000    -0.179731   
N101     N      0.415990000000     0.508970000000     0.257650000000    -0.163248   
N102     N      0.354470000000     0.562330000000     0.292360000000    -0.198535   
N103     N      0.985750000000     0.850280000000     0.254880000000    -0.17947    
N104     N      0.009210000000     0.909820000000     0.270220000000    -0.164384   
N105     N      0.450940000000     0.850850000000     0.301030000000    -0.198352   
N106     N      0.514870000000     0.597550000000     0.239470000000    -0.180139   
N107     N      0.500830000000     0.660330000000     0.255030000000    -0.163807   
N108     N      0.467490000000     0.594650000000     0.206200000000    -0.198507   
N109     N      0.352200000000     0.767200000000     0.024690000000    -0.17914    
N110     N      0.412720000000     0.752830000000     0.003410000000    -0.164395   
N111     N      0.351390000000     0.718020000000     0.556040000000    -0.198527   
N112     N      0.101520000000     0.742790000000     0.500300000000    -0.179733   
N113     N      0.163330000000     0.761810000000     0.512410000000    -0.162193   
N114     N      0.100850000000     0.773350000000     0.950960000000    -0.199187   
N115     N      0.258700000000     0.859710000000     0.031520000000    -0.180091   
N116     N      0.245920000000     0.915910000000     0.999510000000    -0.160665   
N117     N      0.312880000000     0.859370000000     0.011380000000    -0.201952   
N118     N      0.248490000000     0.606530000000     0.492830000000    -0.178788   
N119     N      0.260880000000     0.670810000000     0.506190000000    -0.162945   
N120     N      0.216830000000     0.603320000000     0.541100000000    -0.199102   
N121     N      0.248930000000     0.012760000000     0.834830000000    -0.180101   
N122     N      0.239490000000     0.001990000000     0.899020000000    -0.163657   
N123     N      0.199400000000     0.542550000000     0.832610000000    -0.198621   
N124     N      0.254730000000     0.515730000000     0.586500000000    -0.179511   
N125     N      0.269430000000     0.531160000000     0.648440000000    -0.163417   
N126     N      0.297340000000     0.975710000000     0.585610000000    -0.19875    
N127     N      0.487720000000     0.754430000000     0.849580000000    -0.180426   
N128     N      0.510050000000     0.740270000000     0.909160000000    -0.164315   
N129     N      0.456390000000     0.705120000000     0.849060000000    -0.198149   
N130     N      0.999760000000     0.753790000000     0.661940000000    -0.179425   
N131     N      0.999580000000     0.756330000000     0.596260000000    -0.162547   
N132     N      0.463850000000     0.707900000000     0.660890000000    -0.198777   
N133     N      0.104880000000     0.999730000000     0.753730000000    -0.175994   
N134     N      0.165690000000     0.016090000000     0.735250000000    -0.164958   
N135     N      0.105080000000     0.953380000000     0.718370000000    -0.198321   
N136     N      0.354070000000     0.527910000000     0.745840000000    -0.179734   
N137     N      0.415990000000     0.508970000000     0.757650000000    -0.163227   
N138     N      0.354470000000     0.562330000000     0.792360000000    -0.198514   
N139     N      0.985750000000     0.850280000000     0.754880000000    -0.17947    
N140     N      0.009210000000     0.909820000000     0.770220000000    -0.164353   
N141     N      0.450940000000     0.850850000000     0.801030000000    -0.198297   
N142     N      0.514870000000     0.597550000000     0.739470000000    -0.180124   
N143     N      0.500830000000     0.660330000000     0.755030000000    -0.1638     
N144     N      0.467490000000     0.594650000000     0.706200000000    -0.1985     
N145     N      0.852200000000     0.267200000000     0.524690000000    -0.180283   
N146     N      0.912720000000     0.252820000000     0.503410000000    -0.163091   
N147     N      0.851390000000     0.218020000000     0.056040000000    -0.198468   
N148     N      0.601520000000     0.242790000000     0.000290000000    -0.181155   
N149     N      0.663330000000     0.261810000000     0.012410000000    -0.163064   
N150     N      0.600850000000     0.273350000000     0.450960000000    -0.198967   
N151     N      0.758700000000     0.359710000000     0.531520000000    -0.18039    
N152     N      0.745920000000     0.415910000000     0.499510000000    -0.162502   
N153     N      0.812880000000     0.359370000000     0.511380000000    -0.200272   
N154     N      0.748490000000     0.106530000000     0.992830000000    -0.177179   
N155     N      0.760880000000     0.170810000000     0.006190000000    -0.164023   
N156     N      0.716830000000     0.103320000000     0.041100000000    -0.198865   
N157     N      0.748930000000     0.512760000000     0.334830000000    -0.178633   
N158     N      0.739490000000     0.501990000000     0.399020000000    -0.162863   
N159     N      0.699390000000     0.042550000000     0.332610000000    -0.198797   
N160     N      0.754730000000     0.015730000000     0.086500000000    -0.181392   
N161     N      0.769430000000     0.031160000000     0.148440000000    -0.162873   
N162     N      0.797340000000     0.475710000000     0.085610000000    -0.198164   
N163     N      0.987720000000     0.254430000000     0.349580000000    -0.180264   
N164     N      0.010050000000     0.240270000000     0.409160000000    -0.164749   
N165     N      0.956390000000     0.205130000000     0.349070000000    -0.198147   
N166     N      0.499760000000     0.253790000000     0.161940000000    -0.179456   
N167     N      0.499580000000     0.256330000000     0.096260000000    -0.162928   
N168     N      0.963840000000     0.207900000000     0.160890000000    -0.198848   
N169     N      0.604880000000     0.499730000000     0.253730000000    -0.179866   
N170     N      0.665690000000     0.516090000000     0.235250000000    -0.163493   
N171     N      0.605080000000     0.453380000000     0.218370000000    -0.198587   
N172     N      0.854070000000     0.027910000000     0.245840000000    -0.178609   
N173     N      0.915990000000     0.008970000000     0.257650000000    -0.164604   
N174     N      0.854470000000     0.062330000000     0.292360000000    -0.19845    
N175     N      0.485750000000     0.350280000000     0.254880000000    -0.179654   
N176     N      0.509210000000     0.409820000000     0.270220000000    -0.164303   
N177     N      0.950940000000     0.350850000000     0.301030000000    -0.19841    
N178     N      0.014870000000     0.097560000000     0.239470000000    -0.180245   
N179     N      0.000830000000     0.160330000000     0.255030000000    -0.164134   
N180     N      0.967490000000     0.094650000000     0.206200000000    -0.198552   
N181     N      0.852200000000     0.267200000000     0.024690000000    -0.17915    
N182     N      0.912720000000     0.252820000000     0.003410000000    -0.164393   
N183     N      0.851390000000     0.218020000000     0.556040000000    -0.198536   
N184     N      0.601520000000     0.242790000000     0.500300000000    -0.179749   
N185     N      0.663330000000     0.261810000000     0.512410000000    -0.162209   
N186     N      0.600850000000     0.273350000000     0.950960000000    -0.19918    
N187     N      0.758700000000     0.359710000000     0.031520000000    -0.180063   
N188     N      0.745920000000     0.415910000000     0.999510000000    -0.160887   
N189     N      0.812880000000     0.359370000000     0.011380000000    -0.201938   
N190     N      0.748490000000     0.106530000000     0.492830000000    -0.178773   
N191     N      0.760880000000     0.170810000000     0.506190000000    -0.162953   
N192     N      0.716830000000     0.103320000000     0.541100000000    -0.199104   
N193     N      0.748930000000     0.512760000000     0.834830000000    -0.178632   
N194     N      0.739490000000     0.501990000000     0.899020000000    -0.16285    
N195     N      0.699390000000     0.042550000000     0.832610000000    -0.198768   
N196     N      0.754730000000     0.015730000000     0.586500000000    -0.181242   
N197     N      0.769430000000     0.031160000000     0.648440000000    -0.162853   
N198     N      0.797340000000     0.475710000000     0.585610000000    -0.198199   
N199     N      0.987720000000     0.254430000000     0.849580000000    -0.18026    
N200     N      0.010050000000     0.240270000000     0.909160000000    -0.164538   
N201     N      0.956390000000     0.205130000000     0.849060000000    -0.198153   
N202     N      0.499760000000     0.253790000000     0.661940000000    -0.179471   
N203     N      0.499580000000     0.256330000000     0.596260000000    -0.162938   
N204     N      0.963840000000     0.207900000000     0.660890000000    -0.198842   
N205     N      0.604880000000     0.499730000000     0.753730000000    -0.179804   
N206     N      0.665690000000     0.516090000000     0.735250000000    -0.163486   
N207     N      0.605080000000     0.453380000000     0.718370000000    -0.198578   
N208     N      0.854070000000     0.027910000000     0.745840000000    -0.178608   
N209     N      0.915990000000     0.008970000000     0.757650000000    -0.164588   
N210     N      0.854470000000     0.062330000000     0.792360000000    -0.198429   
N211     N      0.485750000000     0.350280000000     0.754880000000    -0.179652   
N212     N      0.509210000000     0.409820000000     0.770220000000    -0.164278   
N213     N      0.950940000000     0.350850000000     0.801030000000    -0.198356   
N214     N      0.014870000000     0.097560000000     0.739470000000    -0.180228   
N215     N      0.000830000000     0.160330000000     0.755030000000    -0.16412    
N216     N      0.967490000000     0.094650000000     0.706200000000    -0.198544   
N217     N      0.852200000000     0.767200000000     0.524690000000    -0.180281   
N218     N      0.912720000000     0.752830000000     0.503410000000    -0.163071   
N219     N      0.851390000000     0.718020000000     0.056040000000    -0.198455   
N220     N      0.601520000000     0.742790000000     0.000290000000    -0.181147   
N221     N      0.663330000000     0.761810000000     0.012410000000    -0.163051   
N222     N      0.600850000000     0.773350000000     0.450960000000    -0.198973   
N223     N      0.758700000000     0.859710000000     0.531520000000    -0.180419   
N224     N      0.745920000000     0.915910000000     0.499510000000    -0.16229    
N225     N      0.812880000000     0.859370000000     0.511380000000    -0.20027    
N226     N      0.748490000000     0.606530000000     0.992830000000    -0.177184   
N227     N      0.760880000000     0.670810000000     0.006190000000    -0.164021   
N228     N      0.716830000000     0.603320000000     0.041100000000    -0.198862   
N229     N      0.748930000000     0.012760000000     0.334830000000    -0.180091   
N230     N      0.739490000000     0.001990000000     0.399020000000    -0.163669   
N231     N      0.699390000000     0.542550000000     0.332610000000    -0.198636   
N232     N      0.754730000000     0.515730000000     0.086500000000    -0.17967    
N233     N      0.769430000000     0.531160000000     0.148440000000    -0.163438   
N234     N      0.797340000000     0.975710000000     0.085610000000    -0.198708   
N235     N      0.987720000000     0.754430000000     0.349580000000    -0.180274   
N236     N      0.010050000000     0.740270000000     0.409160000000    -0.164733   
N237     N      0.956390000000     0.705120000000     0.349070000000    -0.19812    
N238     N      0.499760000000     0.753790000000     0.161940000000    -0.179456   
N239     N      0.499580000000     0.756330000000     0.096260000000    -0.162911   
N240     N      0.963840000000     0.707900000000     0.160890000000    -0.198826   
N241     N      0.604880000000     0.999730000000     0.253730000000    -0.176064   
N242     N      0.665690000000     0.016090000000     0.235250000000    -0.16496    
N243     N      0.605080000000     0.953380000000     0.218370000000    -0.198331   
N244     N      0.854070000000     0.527910000000     0.245840000000    -0.179731   
N245     N      0.915990000000     0.508970000000     0.257650000000    -0.163226   
N246     N      0.854470000000     0.562330000000     0.292360000000    -0.19853    
N247     N      0.485750000000     0.850280000000     0.254880000000    -0.17963    
N248     N      0.509210000000     0.909820000000     0.270220000000    -0.164174   
N249     N      0.950940000000     0.850850000000     0.301030000000    -0.19833    
N250     N      0.014870000000     0.597550000000     0.239470000000    -0.180304   
N251     N      0.000830000000     0.660330000000     0.255030000000    -0.164137   
N252     N      0.967490000000     0.594650000000     0.206200000000    -0.19856    
N253     N      0.852200000000     0.767200000000     0.024690000000    -0.179143   
N254     N      0.912720000000     0.752830000000     0.003410000000    -0.164379   
N255     N      0.851390000000     0.718020000000     0.556040000000    -0.198523   
N256     N      0.601520000000     0.742790000000     0.500300000000    -0.179736   
N257     N      0.663330000000     0.761810000000     0.512410000000    -0.162193   
N258     N      0.600850000000     0.773350000000     0.950960000000    -0.199186   
N259     N      0.758700000000     0.859710000000     0.031520000000    -0.180091   
N260     N      0.745920000000     0.915910000000     0.999510000000    -0.160671   
N261     N      0.812880000000     0.859370000000     0.011380000000    -0.201941   
N262     N      0.748490000000     0.606530000000     0.492830000000    -0.178786   
N263     N      0.760880000000     0.670810000000     0.506190000000    -0.162946   
N264     N      0.716830000000     0.603320000000     0.541100000000    -0.199102   
N265     N      0.748930000000     0.012760000000     0.834830000000    -0.180094   
N266     N      0.739490000000     0.001990000000     0.899020000000    -0.163658   
N267     N      0.699390000000     0.542550000000     0.832610000000    -0.198607   
N268     N      0.754730000000     0.515730000000     0.586500000000    -0.179509   
N269     N      0.769430000000     0.531160000000     0.648440000000    -0.163421   
N270     N      0.797340000000     0.975710000000     0.585610000000    -0.198746   
N271     N      0.987720000000     0.754430000000     0.849580000000    -0.18027    
N272     N      0.010050000000     0.740270000000     0.909160000000    -0.16452    
N273     N      0.956390000000     0.705120000000     0.849060000000    -0.198126   
N274     N      0.499760000000     0.753790000000     0.661940000000    -0.17947    
N275     N      0.499580000000     0.756330000000     0.596260000000    -0.162921   
N276     N      0.963840000000     0.707900000000     0.660890000000    -0.19882    
N277     N      0.604880000000     0.999730000000     0.753730000000    -0.175989   
N278     N      0.665690000000     0.016090000000     0.735250000000    -0.164959   
N279     N      0.605080000000     0.953380000000     0.718370000000    -0.198321   
N280     N      0.854070000000     0.527910000000     0.745840000000    -0.179734   
N281     N      0.915990000000     0.508970000000     0.757650000000    -0.163205   
N282     N      0.854470000000     0.562330000000     0.792360000000    -0.198509   
N283     N      0.485750000000     0.850280000000     0.754880000000    -0.179627   
N284     N      0.509210000000     0.909820000000     0.770220000000    -0.164148   
N285     N      0.950940000000     0.850850000000     0.801030000000    -0.198276   
N286     N      0.014870000000     0.597550000000     0.739470000000    -0.180286   
N287     N      0.000830000000     0.660330000000     0.755030000000    -0.164123   
N288     N      0.967490000000     0.594650000000     0.706200000000    -0.198552   
O1       O      0.509370000000     0.046600000000     0.221940000000    -0.405629   
O2       O      0.510620000000     0.452240000000     0.237480000000    -0.405001   
O3       O      0.462100000000     0.499200000000     0.231560000000    -0.399557   
O4       O      0.057440000000     0.998080000000     0.228500000000    -0.398882   
O5       O      0.058680000000     0.004610000000     0.280380000000    -0.398693   
O6       O      0.463870000000     0.513640000000     0.281780000000    -0.397889   
O7       O      0.006420000000     0.460820000000     0.288910000000    -0.393119   
O8       O      0.016300000000     0.055490000000     0.273020000000    -0.398783   
O9       O      0.471340000000     0.205380000000     0.251260000000    -0.403432   
O10      O      0.463120000000     0.300980000000     0.257190000000    -0.399695   
O11      O      0.470370000000     0.254760000000     0.206790000000    -0.400681   
O12      O      0.464500000000     0.249610000000     0.301440000000    -0.403245   
O13      O      0.015840000000     0.260140000000     0.304500000000    -0.403393   
O14      O      0.022770000000     0.256680000000     0.210090000000    -0.401168   
O15      O      0.015380000000     0.305390000000     0.254770000000    -0.40321    
O16      O      0.022920000000     0.209780000000     0.259770000000    -0.398261   
O17      O      0.309170000000     0.498840000000     0.242520000000    -0.402566   
O18      O      0.214520000000     0.492980000000     0.234060000000    -0.397171   
O19      O      0.267260000000     0.500450000000     0.192280000000    -0.399045   
O20      O      0.258130000000     0.491390000000     0.286410000000    -0.397813   
O21      O      0.252880000000     0.043860000000     0.291210000000    -0.402936   
O22      O      0.260770000000     0.052800000000     0.196890000000    -0.39519    
O23      O      0.210470000000     0.045270000000     0.241070000000    -0.400761   
O24      O      0.305360000000     0.051270000000     0.248720000000    -0.3987     
O25      O      0.276770000000     0.013160000000     0.037540000000    -0.405446   
O26      O      0.269280000000     0.006090000000     0.443260000000    -0.399334   
O27      O      0.273570000000     0.058820000000     0.486640000000    -0.395477   
O28      O      0.272190000000     0.462780000000     0.993300000000    -0.40114    
O29      O      0.220000000000     0.463760000000     0.998220000000    -0.394913   
O30      O      0.221530000000     0.059740000000     0.493270000000    -0.402993   
O31      O      0.217070000000     0.509770000000     0.447330000000    -0.393822   
O32      O      0.224560000000     0.515140000000     0.042200000000    -0.402569   
O33      O      0.003720000000     0.225950000000     0.052290000000    -0.399761   
O34      O      0.005650000000     0.217800000000     0.457830000000    -0.397535   
O35      O      0.053380000000     0.219460000000     0.506450000000    -0.398128   
O36      O      0.458200000000     0.224200000000     0.005250000000    -0.399492   
O37      O      0.461070000000     0.276690000000     0.999210000000    -0.391489   
O38      O      0.056340000000     0.271950000000     0.500130000000    -0.403254   
O39      O      0.510360000000     0.270350000000     0.453470000000    -0.403084   
O40      O      0.508380000000     0.278500000000     0.048000000000    -0.395875   
O41      O      0.256670000000     0.214350000000     0.037660000000    -0.401454   
O42      O      0.254200000000     0.309450000000     0.050770000000    -0.396771   
O43      O      0.208560000000     0.260060000000     0.041230000000    -0.39888    
O44      O      0.303560000000     0.261900000000     0.047200000000    -0.402109   
O45      O      0.307250000000     0.271580000000     0.495930000000    -0.401996   
O46      O      0.211980000000     0.268180000000     0.489720000000    -0.394841   
O47      O      0.258730000000     0.316810000000     0.499120000000    -0.403675   
O48      O      0.262490000000     0.221450000000     0.486210000000    -0.394292   
O49      O      0.509370000000     0.046600000000     0.721940000000    -0.405587   
O50      O      0.510620000000     0.452240000000     0.737480000000    -0.404956   
O51      O      0.462100000000     0.499200000000     0.731560000000    -0.399507   
O52      O      0.057440000000     0.998080000000     0.728500000000    -0.398767   
O53      O      0.058680000000     0.004610000000     0.780390000000    -0.398467   
O54      O      0.463870000000     0.513640000000     0.781780000000    -0.397812   
O55      O      0.006420000000     0.460820000000     0.788910000000    -0.393014   
O56      O      0.016300000000     0.055490000000     0.773020000000    -0.398737   
O57      O      0.471340000000     0.205380000000     0.751260000000    -0.403429   
O58      O      0.463120000000     0.300980000000     0.757190000000    -0.399688   
O59      O      0.470370000000     0.254760000000     0.706790000000    -0.400679   
O60      O      0.464500000000     0.249610000000     0.801440000000    -0.403232   
O61      O      0.015840000000     0.260140000000     0.804500000000    -0.403375   
O62      O      0.022770000000     0.256680000000     0.710090000000    -0.401162   
O63      O      0.015380000000     0.305390000000     0.754770000000    -0.4032     
O64      O      0.022920000000     0.209780000000     0.759770000000    -0.398248   
O65      O      0.309170000000     0.498840000000     0.742520000000    -0.40256    
O66      O      0.214520000000     0.492980000000     0.734060000000    -0.397164   
O67      O      0.267260000000     0.500450000000     0.692280000000    -0.399033   
O68      O      0.258130000000     0.491390000000     0.786410000000    -0.397811   
O69      O      0.252880000000     0.043860000000     0.791210000000    -0.402927   
O70      O      0.260770000000     0.052800000000     0.696890000000    -0.395181   
O71      O      0.210470000000     0.045270000000     0.741070000000    -0.400756   
O72      O      0.305360000000     0.051270000000     0.748720000000    -0.398693   
O73      O      0.276770000000     0.013160000000     0.537540000000    -0.403351   
O74      O      0.269280000000     0.006090000000     0.943260000000    -0.399645   
O75      O      0.273570000000     0.058820000000     0.986640000000    -0.395122   
O76      O      0.272190000000     0.462780000000     0.493300000000    -0.401545   
O77      O      0.220000000000     0.463760000000     0.498220000000    -0.395635   
O78      O      0.221530000000     0.059740000000     0.993270000000    -0.402192   
O79      O      0.217070000000     0.509770000000     0.947340000000    -0.394113   
O80      O      0.224560000000     0.515140000000     0.542200000000    -0.400485   
O81      O      0.003720000000     0.225950000000     0.552290000000    -0.400127   
O82      O      0.005650000000     0.217800000000     0.957820000000    -0.39532    
O83      O      0.053380000000     0.219460000000     0.006450000000    -0.398363   
O84      O      0.458200000000     0.224200000000     0.505250000000    -0.400015   
O85      O      0.461070000000     0.276690000000     0.499220000000    -0.39629    
O86      O      0.056340000000     0.271950000000     0.000130000000    -0.403674   
O87      O      0.510360000000     0.270350000000     0.953470000000    -0.400933   
O88      O      0.508380000000     0.278500000000     0.548000000000    -0.39623    
O89      O      0.256670000000     0.214350000000     0.537660000000    -0.402292   
O90      O      0.254200000000     0.309450000000     0.550770000000    -0.397628   
O91      O      0.208560000000     0.260060000000     0.541230000000    -0.399761   
O92      O      0.303560000000     0.261900000000     0.547200000000    -0.403062   
O93      O      0.307250000000     0.271580000000     0.995930000000    -0.399112   
O94      O      0.211980000000     0.268180000000     0.989710000000    -0.391991   
O95      O      0.258730000000     0.316810000000     0.999120000000    -0.400904   
O96      O      0.262490000000     0.221450000000     0.986210000000    -0.391551   
O97      O      0.509370000000     0.546600000000     0.221940000000    -0.403619   
O98      O      0.510620000000     0.952240000000     0.237480000000    -0.405217   
O99      O      0.462100000000     0.999200000000     0.231560000000    -0.396873   
O100     O      0.057440000000     0.498080000000     0.228500000000    -0.402231   
O101     O      0.058680000000     0.504610000000     0.280380000000    -0.399806   
O102     O      0.463870000000     0.013640000000     0.281780000000    -0.3972     
O103     O      0.006420000000     0.960820000000     0.288910000000    -0.390916   
O104     O      0.016300000000     0.555490000000     0.273020000000    -0.399115   
O105     O      0.471340000000     0.705380000000     0.251260000000    -0.403426   
O106     O      0.463120000000     0.800980000000     0.257190000000    -0.399687   
O107     O      0.470370000000     0.754750000000     0.206790000000    -0.400679   
O108     O      0.464500000000     0.749610000000     0.301440000000    -0.403243   
O109     O      0.015840000000     0.760140000000     0.304500000000    -0.403384   
O110     O      0.022770000000     0.756680000000     0.210090000000    -0.40116    
O111     O      0.015380000000     0.805390000000     0.254770000000    -0.403193   
O112     O      0.022920000000     0.709780000000     0.259770000000    -0.398258   
O113     O      0.309170000000     0.998840000000     0.242520000000    -0.39975    
O114     O      0.214520000000     0.992980000000     0.234060000000    -0.394552   
O115     O      0.267260000000     0.000450000000     0.192280000000    -0.401708   
O116     O      0.258130000000     0.991390000000     0.286410000000    -0.395449   
O117     O      0.252880000000     0.543860000000     0.291210000000    -0.40372    
O118     O      0.260770000000     0.552800000000     0.196890000000    -0.395272   
O119     O      0.210470000000     0.545270000000     0.241070000000    -0.401599   
O120     O      0.305360000000     0.551270000000     0.248720000000    -0.39964    
O121     O      0.276770000000     0.513160000000     0.037540000000    -0.404676   
O122     O      0.269280000000     0.506090000000     0.443260000000    -0.398757   
O123     O      0.273570000000     0.558820000000     0.486640000000    -0.395791   
O124     O      0.272190000000     0.962780000000     0.993300000000    -0.399036   
O125     O      0.220000000000     0.963760000000     0.998220000000    -0.392718   
O126     O      0.221530000000     0.559740000000     0.493270000000    -0.403352   
O127     O      0.217070000000     0.009770000000     0.447330000000    -0.394133   
O128     O      0.224560000000     0.015140000000     0.042200000000    -0.402894   
O129     O      0.003720000000     0.725950000000     0.052290000000    -0.399722   
O130     O      0.005650000000     0.717800000000     0.457830000000    -0.397495   
O131     O      0.053380000000     0.719460000000     0.506450000000    -0.398083   
O132     O      0.458200000000     0.724200000000     0.005250000000    -0.399457   
O133     O      0.461070000000     0.776690000000     0.999210000000    -0.391416   
O134     O      0.056340000000     0.771950000000     0.500130000000    -0.403214   
O135     O      0.510360000000     0.770350000000     0.453470000000    -0.403042   
O136     O      0.508380000000     0.778500000000     0.048000000000    -0.395818   
O137     O      0.256670000000     0.714350000000     0.037660000000    -0.401431   
O138     O      0.254200000000     0.809460000000     0.050770000000    -0.396736   
O139     O      0.208560000000     0.760060000000     0.041230000000    -0.398855   
O140     O      0.303560000000     0.761900000000     0.047200000000    -0.40209    
O141     O      0.307250000000     0.771580000000     0.495930000000    -0.40199    
O142     O      0.211980000000     0.768180000000     0.489720000000    -0.394829   
O143     O      0.258730000000     0.816810000000     0.499120000000    -0.403694   
O144     O      0.262490000000     0.721450000000     0.486210000000    -0.394294   
O145     O      0.509370000000     0.546600000000     0.721940000000    -0.403568   
O146     O      0.510620000000     0.952240000000     0.737480000000    -0.405174   
O147     O      0.462100000000     0.999200000000     0.731560000000    -0.396814   
O148     O      0.057440000000     0.498080000000     0.728500000000    -0.402128   
O149     O      0.058680000000     0.504610000000     0.780390000000    -0.399583   
O150     O      0.463870000000     0.013640000000     0.781780000000    -0.39712    
O151     O      0.006420000000     0.960820000000     0.788910000000    -0.390804   
O152     O      0.016300000000     0.555490000000     0.773020000000    -0.39907    
O153     O      0.471340000000     0.705380000000     0.751260000000    -0.403423   
O154     O      0.463120000000     0.800980000000     0.757190000000    -0.39968    
O155     O      0.470370000000     0.754750000000     0.706790000000    -0.400677   
O156     O      0.464500000000     0.749610000000     0.801440000000    -0.40323    
O157     O      0.015840000000     0.760140000000     0.804500000000    -0.403366   
O158     O      0.022770000000     0.756680000000     0.710090000000    -0.401154   
O159     O      0.015380000000     0.805390000000     0.754770000000    -0.403183   
O160     O      0.022920000000     0.709780000000     0.759770000000    -0.398245   
O161     O      0.309170000000     0.998840000000     0.742520000000    -0.399735   
O162     O      0.214520000000     0.992980000000     0.734060000000    -0.394536   
O163     O      0.267260000000     0.000450000000     0.692280000000    -0.401708   
O164     O      0.258130000000     0.991390000000     0.786410000000    -0.39544    
O165     O      0.252880000000     0.543860000000     0.791210000000    -0.403713   
O166     O      0.260770000000     0.552800000000     0.696890000000    -0.395263   
O167     O      0.210470000000     0.545270000000     0.741070000000    -0.401597   
O168     O      0.305360000000     0.551270000000     0.748720000000    -0.399636   
O169     O      0.276770000000     0.513160000000     0.537540000000    -0.40256    
O170     O      0.269280000000     0.506090000000     0.943260000000    -0.399069   
O171     O      0.273570000000     0.558820000000     0.986640000000    -0.395436   
O172     O      0.272190000000     0.962780000000     0.493300000000    -0.399445   
O173     O      0.220000000000     0.963760000000     0.498220000000    -0.393445   
O174     O      0.221530000000     0.559740000000     0.993270000000    -0.402549   
O175     O      0.217070000000     0.009770000000     0.947340000000    -0.394422   
O176     O      0.224560000000     0.015140000000     0.542200000000    -0.400827   
O177     O      0.003720000000     0.725950000000     0.552290000000    -0.40009    
O178     O      0.005650000000     0.717800000000     0.957820000000    -0.395271   
O179     O      0.053380000000     0.719460000000     0.006450000000    -0.39832    
O180     O      0.458200000000     0.724200000000     0.505250000000    -0.399981   
O181     O      0.461070000000     0.776690000000     0.499220000000    -0.396233   
O182     O      0.056340000000     0.771950000000     0.000130000000    -0.403636   
O183     O      0.510360000000     0.770350000000     0.953470000000    -0.400883   
O184     O      0.508380000000     0.778500000000     0.548000000000    -0.396175   
O185     O      0.256670000000     0.714350000000     0.537660000000    -0.402273   
O186     O      0.254200000000     0.809460000000     0.550770000000    -0.397596   
O187     O      0.208560000000     0.760060000000     0.541230000000    -0.399739   
O188     O      0.303560000000     0.761900000000     0.547200000000    -0.403046   
O189     O      0.307250000000     0.771580000000     0.995930000000    -0.399096   
O190     O      0.211980000000     0.768180000000     0.989710000000    -0.39197    
O191     O      0.258730000000     0.816810000000     0.999120000000    -0.400915   
O192     O      0.262490000000     0.721450000000     0.986210000000    -0.391541   
O193     O      0.009370000000     0.046600000000     0.221940000000    -0.405695   
O194     O      0.010620000000     0.452240000000     0.237480000000    -0.405047   
O195     O      0.962100000000     0.499200000000     0.231560000000    -0.399338   
O196     O      0.557440000000     0.998080000000     0.228500000000    -0.398904   
O197     O      0.558680000000     0.004610000000     0.280380000000    -0.398718   
O198     O      0.963870000000     0.513640000000     0.281780000000    -0.397662   
O199     O      0.506420000000     0.460820000000     0.288910000000    -0.393065   
O200     O      0.516300000000     0.055490000000     0.273020000000    -0.398757   
O201     O      0.971340000000     0.205380000000     0.251260000000    -0.403578   
O202     O      0.963120000000     0.300980000000     0.257190000000    -0.399778   
O203     O      0.970370000000     0.254760000000     0.206790000000    -0.400779   
O204     O      0.964500000000     0.249610000000     0.301440000000    -0.403333   
O205     O      0.515840000000     0.260140000000     0.304500000000    -0.403133   
O206     O      0.522770000000     0.256680000000     0.210090000000    -0.400893   
O207     O      0.515380000000     0.305390000000     0.254770000000    -0.402955   
O208     O      0.522920000000     0.209780000000     0.259770000000    -0.397933   
O209     O      0.809170000000     0.498840000000     0.242520000000    -0.402564   
O210     O      0.714520000000     0.492980000000     0.234060000000    -0.397171   
O211     O      0.767260000000     0.500450000000     0.192280000000    -0.399045   
O212     O      0.758130000000     0.491390000000     0.286410000000    -0.397812   
O213     O      0.752880000000     0.043860000000     0.291210000000    -0.402937   
O214     O      0.760770000000     0.052800000000     0.196890000000    -0.39519    
O215     O      0.710470000000     0.045270000000     0.241070000000    -0.40076    
O216     O      0.805360000000     0.051270000000     0.248720000000    -0.3987     
O217     O      0.776770000000     0.013160000000     0.037540000000    -0.405435   
O218     O      0.769280000000     0.006090000000     0.443260000000    -0.399329   
O219     O      0.773570000000     0.058820000000     0.486640000000    -0.395471   
O220     O      0.772190000000     0.462780000000     0.993300000000    -0.401138   
O221     O      0.720000000000     0.463760000000     0.998220000000    -0.39491    
O222     O      0.721530000000     0.059740000000     0.493270000000    -0.40299    
O223     O      0.717070000000     0.509770000000     0.447330000000    -0.39382    
O224     O      0.724560000000     0.515140000000     0.042200000000    -0.402564   
O225     O      0.503720000000     0.225950000000     0.052290000000    -0.39976    
O226     O      0.505640000000     0.217800000000     0.457830000000    -0.39746    
O227     O      0.553380000000     0.219460000000     0.506450000000    -0.398166   
O228     O      0.958200000000     0.224200000000     0.005250000000    -0.39932    
O229     O      0.961060000000     0.276690000000     0.999210000000    -0.391283   
O230     O      0.556340000000     0.271950000000     0.500130000000    -0.403308   
O231     O      0.010360000000     0.270350000000     0.453470000000    -0.403114   
O232     O      0.008380000000     0.278500000000     0.048000000000    -0.395836   
O233     O      0.756670000000     0.214350000000     0.037660000000    -0.401456   
O234     O      0.754200000000     0.309450000000     0.050770000000    -0.396772   
O235     O      0.708560000000     0.260060000000     0.041230000000    -0.398881   
O236     O      0.803560000000     0.261900000000     0.047200000000    -0.402111   
O237     O      0.807250000000     0.271580000000     0.495930000000    -0.401995   
O238     O      0.711980000000     0.268180000000     0.489720000000    -0.394841   
O239     O      0.758730000000     0.316810000000     0.499120000000    -0.403675   
O240     O      0.762490000000     0.221450000000     0.486210000000    -0.394291   
O241     O      0.009370000000     0.046600000000     0.721940000000    -0.405652   
O242     O      0.010620000000     0.452240000000     0.737480000000    -0.405002   
O243     O      0.962100000000     0.499200000000     0.731560000000    -0.399293   
O244     O      0.557440000000     0.998080000000     0.728500000000    -0.398789   
O245     O      0.558680000000     0.004610000000     0.780390000000    -0.398491   
O246     O      0.963870000000     0.513640000000     0.781780000000    -0.397591   
O247     O      0.506420000000     0.460820000000     0.788910000000    -0.39296    
O248     O      0.516300000000     0.055490000000     0.773020000000    -0.398712   
O249     O      0.971340000000     0.205380000000     0.751260000000    -0.403572   
O250     O      0.963120000000     0.300980000000     0.757190000000    -0.399769   
O251     O      0.970370000000     0.254760000000     0.706790000000    -0.400775   
O252     O      0.964500000000     0.249610000000     0.801440000000    -0.403318   
O253     O      0.515840000000     0.260140000000     0.804500000000    -0.403121   
O254     O      0.522770000000     0.256680000000     0.710090000000    -0.400893   
O255     O      0.515380000000     0.305390000000     0.754770000000    -0.40295    
O256     O      0.522920000000     0.209780000000     0.759770000000    -0.397927   
O257     O      0.809170000000     0.498840000000     0.742520000000    -0.402558   
O258     O      0.714520000000     0.492980000000     0.734060000000    -0.397165   
O259     O      0.767260000000     0.500450000000     0.692280000000    -0.399033   
O260     O      0.758130000000     0.491390000000     0.786410000000    -0.397809   
O261     O      0.752880000000     0.043860000000     0.791210000000    -0.402928   
O262     O      0.760770000000     0.052800000000     0.696890000000    -0.395181   
O263     O      0.710470000000     0.045270000000     0.741070000000    -0.400755   
O264     O      0.805360000000     0.051270000000     0.748720000000    -0.398693   
O265     O      0.776770000000     0.013160000000     0.537540000000    -0.403345   
O266     O      0.769280000000     0.006090000000     0.943260000000    -0.399639   
O267     O      0.773570000000     0.058820000000     0.986640000000    -0.395117   
O268     O      0.772190000000     0.462780000000     0.493300000000    -0.401541   
O269     O      0.720000000000     0.463760000000     0.498220000000    -0.395632   
O270     O      0.721530000000     0.059740000000     0.993270000000    -0.402191   
O271     O      0.717070000000     0.509770000000     0.947340000000    -0.394109   
O272     O      0.724560000000     0.515140000000     0.542200000000    -0.400482   
O273     O      0.503720000000     0.225950000000     0.552290000000    -0.400126   
O274     O      0.505640000000     0.217800000000     0.957820000000    -0.395244   
O275     O      0.553380000000     0.219460000000     0.006450000000    -0.398402   
O276     O      0.958200000000     0.224200000000     0.505250000000    -0.399844   
O277     O      0.961060000000     0.276690000000     0.499220000000    -0.396058   
O278     O      0.556340000000     0.271950000000     0.000130000000    -0.403726   
O279     O      0.010360000000     0.270350000000     0.953470000000    -0.400965   
O280     O      0.008380000000     0.278500000000     0.548000000000    -0.396191   
O281     O      0.756670000000     0.214350000000     0.537660000000    -0.402292   
O282     O      0.754200000000     0.309450000000     0.550770000000    -0.397627   
O283     O      0.708560000000     0.260060000000     0.541230000000    -0.399761   
O284     O      0.803560000000     0.261900000000     0.547200000000    -0.403061   
O285     O      0.807250000000     0.271580000000     0.995930000000    -0.39912    
O286     O      0.711980000000     0.268180000000     0.989710000000    -0.391995   
O287     O      0.758730000000     0.316810000000     0.999120000000    -0.40091    
O288     O      0.762490000000     0.221450000000     0.986210000000    -0.391556   
O289     O      0.009370000000     0.546600000000     0.221940000000    -0.403691   
O290     O      0.010620000000     0.952240000000     0.237480000000    -0.405263   
O291     O      0.962100000000     0.999200000000     0.231560000000    -0.396664   
O292     O      0.557440000000     0.498080000000     0.228500000000    -0.40226    
O293     O      0.558680000000     0.504610000000     0.280380000000    -0.399834   
O294     O      0.963870000000     0.013640000000     0.281780000000    -0.396977   
O295     O      0.506420000000     0.960820000000     0.288910000000    -0.390856   
O296     O      0.516300000000     0.555490000000     0.273020000000    -0.39909    
O297     O      0.971340000000     0.705380000000     0.251260000000    -0.403571   
O298     O      0.963120000000     0.800980000000     0.257190000000    -0.39977    
O299     O      0.970370000000     0.754750000000     0.206790000000    -0.400777   
O300     O      0.964500000000     0.749610000000     0.301440000000    -0.403331   
O301     O      0.515840000000     0.760140000000     0.304500000000    -0.403125   
O302     O      0.522770000000     0.756680000000     0.210090000000    -0.400886   
O303     O      0.515380000000     0.805390000000     0.254770000000    -0.402938   
O304     O      0.522920000000     0.709780000000     0.259770000000    -0.39793    
O305     O      0.809170000000     0.998840000000     0.242520000000    -0.399751   
O306     O      0.714520000000     0.992980000000     0.234060000000    -0.394552   
O307     O      0.767260000000     0.000450000000     0.192280000000    -0.401707   
O308     O      0.758130000000     0.991390000000     0.286410000000    -0.395448   
O309     O      0.752880000000     0.543860000000     0.291210000000    -0.403721   
O310     O      0.760770000000     0.552800000000     0.196890000000    -0.395271   
O311     O      0.710470000000     0.545270000000     0.241070000000    -0.401599   
O312     O      0.805360000000     0.551270000000     0.248720000000    -0.399639   
O313     O      0.776770000000     0.513160000000     0.037540000000    -0.404665   
O314     O      0.769280000000     0.506090000000     0.443260000000    -0.398753   
O315     O      0.773570000000     0.558820000000     0.486640000000    -0.395785   
O316     O      0.772190000000     0.962780000000     0.993300000000    -0.399034   
O317     O      0.720000000000     0.963760000000     0.998220000000    -0.392715   
O318     O      0.721530000000     0.559740000000     0.493270000000    -0.40335    
O319     O      0.717070000000     0.009770000000     0.447330000000    -0.394131   
O320     O      0.724560000000     0.015140000000     0.042200000000    -0.402889   
O321     O      0.503720000000     0.725950000000     0.052290000000    -0.399722   
O322     O      0.505640000000     0.717800000000     0.457830000000    -0.397419   
O323     O      0.553380000000     0.719460000000     0.506450000000    -0.398122   
O324     O      0.958200000000     0.724200000000     0.005250000000    -0.399285   
O325     O      0.961060000000     0.776690000000     0.999210000000    -0.39121    
O326     O      0.556340000000     0.771950000000     0.500130000000    -0.403268   
O327     O      0.010360000000     0.770350000000     0.453470000000    -0.403072   
O328     O      0.008380000000     0.778500000000     0.048000000000    -0.39578    
O329     O      0.756670000000     0.714350000000     0.037660000000    -0.401433   
O330     O      0.754200000000     0.809460000000     0.050770000000    -0.396737   
O331     O      0.708560000000     0.760060000000     0.041230000000    -0.398856   
O332     O      0.803560000000     0.761900000000     0.047200000000    -0.402092   
O333     O      0.807250000000     0.771580000000     0.495930000000    -0.401989   
O334     O      0.711980000000     0.768180000000     0.489720000000    -0.394829   
O335     O      0.758730000000     0.816810000000     0.499120000000    -0.403694   
O336     O      0.762490000000     0.721450000000     0.486210000000    -0.394292   
O337     O      0.009370000000     0.546600000000     0.721940000000    -0.40364    
O338     O      0.010620000000     0.952240000000     0.737480000000    -0.405219   
O339     O      0.962100000000     0.999200000000     0.731560000000    -0.396609   
O340     O      0.557440000000     0.498080000000     0.728500000000    -0.402156   
O341     O      0.558680000000     0.504610000000     0.780390000000    -0.39961    
O342     O      0.963870000000     0.013640000000     0.781780000000    -0.396903   
O343     O      0.506420000000     0.960820000000     0.788910000000    -0.390745   
O344     O      0.516300000000     0.555490000000     0.773020000000    -0.399046   
O345     O      0.971340000000     0.705380000000     0.751260000000    -0.403566   
O346     O      0.963120000000     0.800980000000     0.757190000000    -0.399761   
O347     O      0.970370000000     0.754750000000     0.706790000000    -0.400773   
O348     O      0.964500000000     0.749610000000     0.801440000000    -0.403316   
O349     O      0.515840000000     0.760140000000     0.804500000000    -0.403113   
O350     O      0.522770000000     0.756680000000     0.710090000000    -0.400885   
O351     O      0.515380000000     0.805390000000     0.754770000000    -0.402933   
O352     O      0.522920000000     0.709780000000     0.759770000000    -0.397924   
O353     O      0.809170000000     0.998840000000     0.742520000000    -0.399736   
O354     O      0.714520000000     0.992980000000     0.734060000000    -0.394535   
O355     O      0.767260000000     0.000450000000     0.692280000000    -0.401707   
O356     O      0.758130000000     0.991390000000     0.786410000000    -0.395439   
O357     O      0.752880000000     0.543860000000     0.791210000000    -0.403714   
O358     O      0.760770000000     0.552800000000     0.696890000000    -0.395263   
O359     O      0.710470000000     0.545270000000     0.741070000000    -0.401597   
O360     O      0.805360000000     0.551270000000     0.748720000000    -0.399635   
O361     O      0.776770000000     0.513160000000     0.537540000000    -0.402554   
O362     O      0.769280000000     0.506090000000     0.943260000000    -0.399064   
O363     O      0.773570000000     0.558820000000     0.986640000000    -0.395431   
O364     O      0.772190000000     0.962780000000     0.493300000000    -0.399442   
O365     O      0.720000000000     0.963760000000     0.498220000000    -0.393441   
O366     O      0.721530000000     0.559740000000     0.993270000000    -0.402548   
O367     O      0.717070000000     0.009770000000     0.947340000000    -0.394419   
O368     O      0.724560000000     0.015140000000     0.542200000000    -0.400825   
O369     O      0.503720000000     0.725950000000     0.552290000000    -0.400089   
O370     O      0.505640000000     0.717800000000     0.957820000000    -0.395194   
O371     O      0.553380000000     0.719460000000     0.006450000000    -0.398359   
O372     O      0.958200000000     0.724200000000     0.505250000000    -0.39981    
O373     O      0.961060000000     0.776690000000     0.499220000000    -0.396002   
O374     O      0.556340000000     0.771950000000     0.000130000000    -0.403688   
O375     O      0.010360000000     0.770350000000     0.953470000000    -0.400916   
O376     O      0.008380000000     0.778500000000     0.548000000000    -0.396137   
O377     O      0.756670000000     0.714350000000     0.537660000000    -0.402273   
O378     O      0.754200000000     0.809460000000     0.550770000000    -0.397595   
O379     O      0.708560000000     0.760060000000     0.541230000000    -0.399738   
O380     O      0.803560000000     0.761900000000     0.547200000000    -0.403045   
O381     O      0.807250000000     0.771580000000     0.995930000000    -0.399104   
O382     O      0.711980000000     0.768180000000     0.989710000000    -0.391974   
O383     O      0.758730000000     0.816810000000     0.999120000000    -0.400921   
O384     O      0.762490000000     0.721450000000     0.986210000000    -0.391546   


