data_structure

_audit_creation_method RASPA-1.0
_audit_creation_date 2023-6-4
_audit_author_name 'Poobodin Mano'

_cell_length_a    27.8843
_cell_length_b    29.62
_cell_length_c    20.9621
_cell_angle_alpha 89.9989
_cell_angle_beta  89.9989
_cell_angle_gamma 96.7629
_cell_volume      17192.8

_symmetry_cell_setting          triclinic
_symmetry_space_group_name_Hall 'P 1'
_symmetry_space_group_name_H-M  'P 1'
_symmetry_Int_Tables_number     1

_symmetry_equiv_pos_as_xyz 'x,y,z'

loop_
_atom_site_label
_atom_site_type_symbol
_atom_site_fract_x
_atom_site_fract_y
_atom_site_fract_z
_atom_site_charge
C1       C      0.051650000000     0.417590000000     0.009080000000     0.39416    
C2       C      0.457770000000     0.065210000000     0.032420000000     0.393792   
C3       C      0.088690000000     0.040340000000     0.031400000000     0.406235   
C4       C      0.418640000000     0.442060000000     0.010330000000     0.409171   
C5       C      0.085830000000     0.419360000000     0.494000000000     0.394216   
C6       C      0.461840000000     0.044180000000     0.480930000000     0.395292   
C7       C      0.100220000000     0.042910000000     0.463750000000     0.411122   
C8       C      0.454370000000     0.416820000000     0.506930000000     0.405354   
C9       C      0.258310000000     0.231840000000     0.902290000000     0.46837    
C10      C      0.253180000000     0.251310000000     0.143640000000     0.466758   
C11      C      0.325300000000     0.192810000000     0.031670000000     0.448847   
C12      C      0.184920000000     0.289970000000     0.015060000000     0.450285   
C13      C      0.267100000000     0.225500000000     0.398310000000     0.463764   
C14      C      0.263580000000     0.214390000000     0.640810000000     0.472546   
C15      C      0.322390000000     0.161490000000     0.512740000000     0.451268   
C16      C      0.211940000000     0.287500000000     0.513080000000     0.466426   
C17      C      0.225200000000     0.182280000000     0.740820000000    -0.0100945  
C18      C      0.310840000000     0.215990000000     0.740190000000    -0.0373748  
C19      C      0.216210000000     0.207430000000     0.803030000000    -0.0113271  
C20      C      0.304250000000     0.243860000000     0.800140000000     0.0933923  
C21      C      0.309270000000     0.252170000000     0.297680000000    -0.0132029  
C22      C      0.225670000000     0.208380000000     0.295830000000    -0.0431777  
C23      C      0.293870000000     0.282270000000     0.242640000000    -0.0100248  
C24      C      0.210330000000     0.244260000000     0.250500000000     0.0961288  
C25      C      0.143580000000     0.380750000000     0.557410000000    -0.0151028  
C26      C      0.109340000000     0.347000000000     0.454260000000    -0.0427163  
C27      C      0.191920000000     0.363290000000     0.542160000000    -0.00663291 
C28      C      0.156750000000     0.326410000000     0.442750000000     0.0926409  
C29      C      0.426830000000     0.339350000000     0.473960000000    -0.00105385 
C30      C      0.399880000000     0.369920000000     0.579090000000    -0.0352256  
C31      C      0.378480000000     0.310440000000     0.469540000000    -0.0326756  
C32      C      0.351520000000     0.340150000000     0.569380000000     0.0785486  
C33      C      0.397440000000     0.133050000000     0.549630000000    -0.0110455  
C34      C      0.340590000000     0.084920000000     0.477640000000    -0.0371117  
C35      C      0.440600000000     0.119070000000     0.512610000000    -0.0117438  
C36      C      0.384300000000     0.070630000000     0.439760000000     0.0882809  
C37      C      0.172950000000     0.108200000000     0.549790000000    -0.0215146  
C38      C      0.136740000000     0.150060000000     0.460880000000    -0.044921   
C39      C      0.180350000000     0.070510000000     0.502520000000    -0.00265519 
C40      C      0.145480000000     0.111370000000     0.415210000000     0.0917108  
C41      C      0.110370000000     0.315390000000     0.059050000000    -0.0121414  
C42      C      0.162190000000     0.363830000000     0.980730000000    -0.0347484  
C43      C      0.066640000000     0.339840000000     0.038690000000    -0.0132737  
C44      C      0.116910000000     0.381160000000     0.952730000000     0.0895068  
C45      C      0.318940000000     0.359100000000     0.952180000000    -0.0326225  
C46      C      0.322000000000     0.361140000000     0.068110000000    -0.0624925  
C47      C      0.355550000000     0.401270000000     0.943500000000     0.00535047 
C48      C      0.342270000000     0.411640000000     0.062360000000     0.0994097  
C49      C      0.348980000000     0.118240000000     0.062670000000    -0.0106074  
C50      C      0.400760000000     0.169850000000     0.987440000000    -0.0370131  
C51      C      0.394760000000     0.100940000000     0.088960000000    -0.0123032  
C52      C      0.445270000000     0.146730000000     0.008560000000     0.0861333  
C53      C      0.200550000000     0.115340000000     0.989060000000    -0.0311759  
C54      C      0.173740000000     0.131590000000     0.095680000000    -0.0563163  
C55      C      0.161960000000     0.075460000000     0.978360000000     0.00485747 
C56      C      0.151920000000     0.081110000000     0.099230000000     0.0967151  
C57      C      0.051650000000     0.917590000000     0.009080000000     0.394119   
C58      C      0.457770000000     0.565210000000     0.032420000000     0.393879   
C59      C      0.088690000000     0.540340000000     0.031400000000     0.406311   
C60      C      0.418640000000     0.942070000000     0.010330000000     0.409136   
C61      C      0.085830000000     0.919350000000     0.494000000000     0.394092   
C62      C      0.461840000000     0.544180000000     0.480930000000     0.395276   
C63      C      0.100220000000     0.542910000000     0.463750000000     0.411209   
C64      C      0.454370000000     0.916820000000     0.506930000000     0.405336   
C65      C      0.258310000000     0.731840000000     0.902290000000     0.468362   
C66      C      0.253180000000     0.751310000000     0.143640000000     0.466754   
C67      C      0.325300000000     0.692810000000     0.031670000000     0.448814   
C68      C      0.184920000000     0.789970000000     0.015060000000     0.450291   
C69      C      0.267100000000     0.725490000000     0.398310000000     0.463769   
C70      C      0.263570000000     0.714390000000     0.640810000000     0.47254    
C71      C      0.322390000000     0.661490000000     0.512740000000     0.451262   
C72      C      0.211940000000     0.787500000000     0.513080000000     0.466584   
C73      C      0.225200000000     0.682280000000     0.740820000000    -0.0100864  
C74      C      0.310840000000     0.715990000000     0.740190000000    -0.0373877  
C75      C      0.216210000000     0.707430000000     0.803030000000    -0.0113499  
C76      C      0.304250000000     0.743850000000     0.800140000000     0.0934106  
C77      C      0.309270000000     0.752170000000     0.297680000000    -0.0132155  
C78      C      0.225670000000     0.708380000000     0.295830000000    -0.0431797  
C79      C      0.293870000000     0.782270000000     0.242640000000    -0.0100149  
C80      C      0.210330000000     0.744260000000     0.250500000000     0.0961322  
C81      C      0.143580000000     0.880750000000     0.557410000000    -0.0151044  
C82      C      0.109340000000     0.847000000000     0.454260000000    -0.0427115  
C83      C      0.191920000000     0.863280000000     0.542160000000    -0.00658832 
C84      C      0.156750000000     0.826420000000     0.442750000000     0.0925855  
C85      C      0.426840000000     0.839350000000     0.473960000000    -0.00110226 
C86      C      0.399880000000     0.869920000000     0.579090000000    -0.0352382  
C87      C      0.378480000000     0.810440000000     0.469540000000    -0.0326529  
C88      C      0.351520000000     0.840150000000     0.569380000000     0.0785482  
C89      C      0.397440000000     0.633050000000     0.549630000000    -0.011053   
C90      C      0.340590000000     0.584920000000     0.477640000000    -0.0370913  
C91      C      0.440600000000     0.619070000000     0.512610000000    -0.0117147  
C92      C      0.384300000000     0.570630000000     0.439760000000     0.0881957  
C93      C      0.172950000000     0.608200000000     0.549790000000    -0.0215567  
C94      C      0.136740000000     0.650060000000     0.460880000000    -0.044889   
C95      C      0.180350000000     0.570510000000     0.502520000000    -0.00262898 
C96      C      0.145480000000     0.611370000000     0.415210000000     0.0916928  
C97      C      0.110370000000     0.815390000000     0.059050000000    -0.012162   
C98      C      0.162190000000     0.863830000000     0.980730000000    -0.0347375  
C99      C      0.066640000000     0.839840000000     0.038690000000    -0.0132697  
C100     C      0.116910000000     0.881160000000     0.952730000000     0.0894846  
C101     C      0.318940000000     0.859100000000     0.952180000000    -0.0326243  
C102     C      0.322000000000     0.861140000000     0.068110000000    -0.0624854  
C103     C      0.355560000000     0.901270000000     0.943500000000     0.00536031 
C104     C      0.342270000000     0.911640000000     0.062360000000     0.0993896  
C105     C      0.348980000000     0.618240000000     0.062670000000    -0.0106653  
C106     C      0.400760000000     0.669850000000     0.987440000000    -0.0369883  
C107     C      0.394760000000     0.600940000000     0.088960000000    -0.0122775  
C108     C      0.445280000000     0.646730000000     0.008560000000     0.0861264  
C109     C      0.200550000000     0.615340000000     0.989060000000    -0.0311682  
C110     C      0.173740000000     0.631590000000     0.095680000000    -0.0562988  
C111     C      0.161960000000     0.575460000000     0.978360000000     0.0048632  
C112     C      0.151920000000     0.581120000000     0.099230000000     0.0966754  
C113     C      0.551650000000     0.417590000000     0.009080000000     0.394283   
C114     C      0.957760000000     0.065210000000     0.032420000000     0.393654   
C115     C      0.588700000000     0.040340000000     0.031400000000     0.406296   
C116     C      0.918640000000     0.442060000000     0.010330000000     0.409008   
C117     C      0.585830000000     0.419360000000     0.494000000000     0.394424   
C118     C      0.961840000000     0.044180000000     0.480930000000     0.395146   
C119     C      0.600220000000     0.042910000000     0.463750000000     0.411166   
C120     C      0.954370000000     0.416820000000     0.506930000000     0.40523    
C121     C      0.758310000000     0.231840000000     0.902290000000     0.46838    
C122     C      0.753180000000     0.251310000000     0.143640000000     0.466775   
C123     C      0.825300000000     0.192810000000     0.031670000000     0.448774   
C124     C      0.684920000000     0.289970000000     0.015060000000     0.450179   
C125     C      0.767100000000     0.225500000000     0.398310000000     0.463772   
C126     C      0.763570000000     0.214390000000     0.640810000000     0.472553   
C127     C      0.822390000000     0.161490000000     0.512740000000     0.451369   
C128     C      0.711940000000     0.287500000000     0.513080000000     0.466437   
C129     C      0.725210000000     0.182280000000     0.740820000000    -0.0100372  
C130     C      0.810840000000     0.215990000000     0.740190000000    -0.0373611  
C131     C      0.716210000000     0.207430000000     0.803030000000    -0.0113758  
C132     C      0.804250000000     0.243860000000     0.800140000000     0.093355   
C133     C      0.809270000000     0.252170000000     0.297680000000    -0.0131886  
C134     C      0.725670000000     0.208380000000     0.295830000000    -0.0431816  
C135     C      0.793870000000     0.282270000000     0.242640000000    -0.0100319  
C136     C      0.710330000000     0.244260000000     0.250500000000     0.0961316  
C137     C      0.643580000000     0.380750000000     0.557410000000    -0.0151181  
C138     C      0.609340000000     0.347000000000     0.454260000000    -0.0427246  
C139     C      0.691920000000     0.363290000000     0.542160000000    -0.00662382 
C140     C      0.656750000000     0.326410000000     0.442750000000     0.0926642  
C141     C      0.926830000000     0.339350000000     0.473960000000    -0.00109041 
C142     C      0.899880000000     0.369920000000     0.579090000000    -0.0352366  
C143     C      0.878480000000     0.310440000000     0.469540000000    -0.0326536  
C144     C      0.851520000000     0.340150000000     0.569380000000     0.0785657  
C145     C      0.897440000000     0.133050000000     0.549630000000    -0.0110302  
C146     C      0.840590000000     0.084920000000     0.477640000000    -0.0371153  
C147     C      0.940600000000     0.119070000000     0.512610000000    -0.0117726  
C148     C      0.884300000000     0.070630000000     0.439760000000     0.0882793  
C149     C      0.672950000000     0.108200000000     0.549790000000    -0.0215097  
C150     C      0.636740000000     0.150060000000     0.460880000000    -0.0449517  
C151     C      0.680350000000     0.070510000000     0.502520000000    -0.00265062 
C152     C      0.645480000000     0.111370000000     0.415210000000     0.0917483  
C153     C      0.610370000000     0.315390000000     0.059050000000    -0.0121177  
C154     C      0.662190000000     0.363830000000     0.980730000000    -0.0347522  
C155     C      0.566640000000     0.339840000000     0.038690000000    -0.0132983  
C156     C      0.616910000000     0.381160000000     0.952730000000     0.089512   
C157     C      0.818940000000     0.359100000000     0.952180000000    -0.0325986  
C158     C      0.821990000000     0.361140000000     0.068110000000    -0.062521   
C159     C      0.855550000000     0.401270000000     0.943500000000     0.00532949 
C160     C      0.842270000000     0.411640000000     0.062360000000     0.0994171  
C161     C      0.848980000000     0.118240000000     0.062670000000    -0.0106121  
C162     C      0.900760000000     0.169850000000     0.987440000000    -0.0369813  
C163     C      0.894760000000     0.100940000000     0.088960000000    -0.0123163  
C164     C      0.945280000000     0.146730000000     0.008560000000     0.0861429  
C165     C      0.700550000000     0.115340000000     0.989060000000    -0.0311606  
C166     C      0.673740000000     0.131590000000     0.095680000000    -0.0563181  
C167     C      0.661960000000     0.075460000000     0.978360000000     0.00485955 
C168     C      0.651920000000     0.081110000000     0.099230000000     0.0967294  
C169     C      0.551650000000     0.917590000000     0.009080000000     0.394243   
C170     C      0.957770000000     0.565210000000     0.032420000000     0.393729   
C171     C      0.588690000000     0.540340000000     0.031400000000     0.406423   
C172     C      0.918640000000     0.942070000000     0.010330000000     0.40901    
C173     C      0.585830000000     0.919350000000     0.494000000000     0.394219   
C174     C      0.961840000000     0.544180000000     0.480930000000     0.395135   
C175     C      0.600220000000     0.542910000000     0.463750000000     0.411316   
C176     C      0.954360000000     0.916820000000     0.506930000000     0.405139   
C177     C      0.758310000000     0.731840000000     0.902290000000     0.46836    
C178     C      0.753180000000     0.751310000000     0.143640000000     0.466899   
C179     C      0.825300000000     0.692810000000     0.031670000000     0.448819   
C180     C      0.684910000000     0.789970000000     0.015060000000     0.450233   
C181     C      0.767100000000     0.725490000000     0.398310000000     0.463771   
C182     C      0.763570000000     0.714390000000     0.640810000000     0.472541   
C183     C      0.822390000000     0.661490000000     0.512740000000     0.451265   
C184     C      0.711940000000     0.787500000000     0.513080000000     0.466592   
C185     C      0.725200000000     0.682280000000     0.740820000000    -0.0100885  
C186     C      0.810840000000     0.715990000000     0.740190000000    -0.037369   
C187     C      0.716210000000     0.707430000000     0.803030000000    -0.0113561  
C188     C      0.804250000000     0.743850000000     0.800140000000     0.0934123  
C189     C      0.809260000000     0.752170000000     0.297680000000    -0.0131473  
C190     C      0.725670000000     0.708380000000     0.295830000000    -0.0432169  
C191     C      0.793870000000     0.782270000000     0.242640000000    -0.0100401  
C192     C      0.710330000000     0.744260000000     0.250500000000     0.096149   
C193     C      0.643580000000     0.880750000000     0.557410000000    -0.0151325  
C194     C      0.609340000000     0.847000000000     0.454260000000    -0.0427368  
C195     C      0.691910000000     0.863280000000     0.542160000000    -0.0065424  
C196     C      0.656750000000     0.826420000000     0.442750000000     0.0926121  
C197     C      0.926840000000     0.839350000000     0.473960000000    -0.00113909 
C198     C      0.899880000000     0.869920000000     0.579090000000    -0.0352567  
C199     C      0.878480000000     0.810440000000     0.469540000000    -0.0326324  
C200     C      0.851520000000     0.840150000000     0.569380000000     0.0785653  
C201     C      0.897440000000     0.633050000000     0.549630000000    -0.0110416  
C202     C      0.840590000000     0.584920000000     0.477640000000    -0.03709    
C203     C      0.940600000000     0.619070000000     0.512610000000    -0.0117337  
C204     C      0.884300000000     0.570630000000     0.439760000000     0.0881962  
C205     C      0.672960000000     0.608200000000     0.549790000000    -0.0216245  
C206     C      0.636740000000     0.650060000000     0.460880000000    -0.0449233  
C207     C      0.680350000000     0.570510000000     0.502520000000    -0.00259354 
C208     C      0.645480000000     0.611370000000     0.415210000000     0.0917349  
C209     C      0.610380000000     0.815390000000     0.059050000000    -0.012108   
C210     C      0.662190000000     0.863830000000     0.980730000000    -0.0347203  
C211     C      0.566640000000     0.839840000000     0.038690000000    -0.0133073  
C212     C      0.616910000000     0.881160000000     0.952730000000     0.0894774  
C213     C      0.818940000000     0.859100000000     0.952180000000    -0.0326044  
C214     C      0.822000000000     0.861140000000     0.068110000000    -0.062479   
C215     C      0.855560000000     0.901270000000     0.943500000000     0.00534081 
C216     C      0.842270000000     0.911640000000     0.062360000000     0.0993898  
C217     C      0.848980000000     0.618240000000     0.062670000000    -0.0106633  
C218     C      0.900760000000     0.669850000000     0.987440000000    -0.0369814  
C219     C      0.894760000000     0.600940000000     0.088960000000    -0.0122682  
C220     C      0.945280000000     0.646730000000     0.008560000000     0.0861133  
C221     C      0.700550000000     0.615340000000     0.989060000000    -0.0311649  
C222     C      0.673740000000     0.631590000000     0.095680000000    -0.0563146  
C223     C      0.661960000000     0.575460000000     0.978360000000     0.00486311 
C224     C      0.651920000000     0.581120000000     0.099230000000     0.0967207  
Cu1      Cu     0.505740000000     0.996260000000     0.962380000000     0.837634   
Cu2      Cu     0.001980000000     0.485420000000     0.079140000000     0.837604   
Cu3      Cu     0.520300000000     0.975700000000     0.428100000000     0.837603   
Cu4      Cu     0.029440000000     0.489010000000     0.543970000000     0.843526   
Cu5      Cu     0.289950000000     0.278760000000     0.016280000000     1.15817    
Cu6      Cu     0.220610000000     0.204410000000     0.028870000000     1.13706    
Cu7      Cu     0.305320000000     0.255660000000     0.525820000000     1.169      
Cu8      Cu     0.225240000000     0.191490000000     0.514850000000     1.16795    
Cu9      Cu     0.505740000000     0.496260000000     0.962380000000     0.838324   
Cu10     Cu     0.001980000000     0.985410000000     0.079140000000     0.836902   
Cu11     Cu     0.520300000000     0.475700000000     0.428100000000     0.838226   
Cu12     Cu     0.029440000000     0.989000000000     0.543970000000     0.842819   
Cu13     Cu     0.289950000000     0.778760000000     0.016280000000     1.15811    
Cu14     Cu     0.220610000000     0.704420000000     0.028870000000     1.13701    
Cu15     Cu     0.305320000000     0.755660000000     0.525820000000     1.16898    
Cu16     Cu     0.225240000000     0.691490000000     0.514850000000     1.16795    
Cu17     Cu     0.005740000000     0.996260000000     0.962380000000     0.836319   
Cu18     Cu     0.501980000000     0.485420000000     0.079140000000     0.838944   
Cu19     Cu     0.020300000000     0.975700000000     0.428100000000     0.836213   
Cu20     Cu     0.529440000000     0.489010000000     0.543970000000     0.844836   
Cu21     Cu     0.789950000000     0.278760000000     0.016280000000     1.15832    
Cu22     Cu     0.720600000000     0.204410000000     0.028870000000     1.13711    
Cu23     Cu     0.805320000000     0.255660000000     0.525820000000     1.16909    
Cu24     Cu     0.725240000000     0.191490000000     0.514850000000     1.16798    
Cu25     Cu     0.005740000000     0.496260000000     0.962380000000     0.836995   
Cu26     Cu     0.501980000000     0.985410000000     0.079140000000     0.838313   
Cu27     Cu     0.020300000000     0.475700000000     0.428100000000     0.83689    
Cu28     Cu     0.529440000000     0.989000000000     0.543970000000     0.844114   
Cu29     Cu     0.789950000000     0.778760000000     0.016280000000     1.15814    
Cu30     Cu     0.720610000000     0.704420000000     0.028870000000     1.13704    
Cu31     Cu     0.805320000000     0.755660000000     0.525820000000     1.16899    
Cu32     Cu     0.725240000000     0.691490000000     0.514850000000     1.16796    
H1       H      0.196850000000     0.237030000000     0.790870000000     0.0382834  
H2       H      0.191280000000     0.177780000000     0.712450000000     0.0406515  
H3       H      0.298750000000     0.278880000000     0.784800000000     0.0179261  
H4       H      0.340490000000     0.233860000000     0.710960000000     0.0530386  
H5       H      0.191350000000     0.184410000000     0.833300000000     0.0409861  
H6       H      0.234720000000     0.147930000000     0.753280000000     0.0341297  
H7       H      0.322610000000     0.182840000000     0.754710000000     0.0441719  
H8       H      0.358360000000     0.276890000000     0.859170000000     0.0974718  
H9       H      0.350500000000     0.217610000000     0.866460000000     0.0952875  
H10      H      0.283850000000     0.314310000000     0.263740000000     0.0348797  
H11      H      0.334810000000     0.273200000000     0.329480000000     0.0389108  
H12      H      0.202870000000     0.273750000000     0.280340000000     0.0175166  
H13      H      0.194270000000     0.195440000000     0.326080000000     0.0537229  
H14      H      0.325400000000     0.291430000000     0.210820000000     0.0402711  
H15      H      0.329360000000     0.225630000000     0.276360000000     0.0380531  
H16      H      0.236500000000     0.179420000000     0.267600000000     0.0491228  
H17      H      0.156670000000     0.251280000000     0.182790000000     0.0982188  
H18      H      0.164560000000     0.194980000000     0.201560000000     0.0954977  
H19      H      0.214970000000     0.390030000000     0.515320000000     0.0379002  
H20      H      0.150920000000     0.413620000000     0.583340000000     0.0402261  
H21      H      0.179400000000     0.350770000000     0.411530000000     0.0180573  
H22      H      0.094640000000     0.356650000000     0.407510000000     0.0534049  
H23      H      0.210570000000     0.356990000000     0.587720000000     0.0369562  
H24      H      0.122530000000     0.356000000000     0.589630000000     0.0418575  
H25      H      0.082390000000     0.320440000000     0.475230000000     0.046181   
H26      H      0.177930000000     0.272170000000     0.390880000000     0.0957584  
H27      H      0.124930000000     0.259230000000     0.434410000000     0.09698    
H28      H      0.352580000000     0.328640000000     0.441920000000     0.0387471  
H29      H      0.438410000000     0.350030000000     0.424930000000     0.0396983  
H30      H      0.326830000000     0.360030000000     0.542160000000     0.021077   
H31      H      0.393280000000     0.402480000000     0.602140000000     0.0434919  
H32      H      0.384110000000     0.278680000000     0.443930000000     0.0379822  
H33      H      0.453920000000     0.318040000000     0.492870000000     0.0358528  
H34      H      0.423440000000     0.352260000000     0.611160000000     0.0460832  
H35      H      0.319090000000     0.356620000000     0.653580000000     0.0797938  
H36      H      0.352950000000     0.312080000000     0.660230000000     0.0888622  
H37      H      0.450970000000     0.145610000000     0.476000000000     0.0373151  
H38      H      0.406770000000     0.168090000000     0.568410000000     0.0432907  
H39      H      0.390570000000     0.094310000000     0.398560000000     0.0202611  
H40      H      0.309690000000     0.086560000000     0.444460000000     0.0496341  
H41      H      0.471860000000     0.118890000000     0.545560000000     0.0397349  
H42      H      0.391140000000     0.110060000000     0.591500000000     0.0379996  
H43      H      0.329420000000     0.058510000000     0.514170000000     0.0461164  
H44      H      0.392030000000     0.018260000000     0.375470000000     0.0964144  
H45      H      0.373380000000     0.999930000000     0.451210000000     0.0917448  
H46      H      0.216570000000     0.077810000000     0.480130000000     0.0384186  
H47      H      0.203860000000     0.112410000000     0.583400000000     0.0309725  
H48      H      0.182560000000     0.118960000000     0.395280000000     0.0236683  
H49      H      0.142490000000     0.182910000000     0.435230000000     0.0443328  
H50      H      0.179150000000     0.037410000000     0.527990000000     0.0361821  
H51      H      0.139800000000     0.098750000000     0.578450000000     0.0491628  
H52      H      0.098650000000     0.145440000000     0.477710000000     0.0455652  
H53      H      0.116980000000     0.081740000000     0.331650000000     0.0970292  
H54      H      0.075290000000     0.106370000000     0.377440000000     0.0933104  
H55      H      0.043550000000     0.316310000000     0.006970000000     0.0381685  
H56      H      0.097730000000     0.279030000000     0.068900000000     0.042087   
H57      H      0.102360000000     0.356670000000     0.915200000000     0.0212946  
H58      H      0.188650000000     0.361340000000     0.941450000000     0.0474337  
H59      H      0.044490000000     0.345320000000     0.081520000000     0.0417166  
H60      H      0.124280000000     0.330470000000     0.104990000000     0.0357681  
H61      H      0.179040000000     0.388960000000     0.016000000000     0.0450951  
H62      H      0.107920000000     0.432390000000     0.886640000000     0.0948806  
H63      H      0.137150000000     0.451730000000     0.956810000000     0.0914208  
H64      H      0.385900000000     0.392170000000     0.913410000000     0.0392045  
H65      H      0.321070000000     0.337180000000     0.909830000000     0.0373174  
H66      H      0.362300000000     0.420970000000     0.107290000000     0.0235083  
H67      H      0.340810000000     0.346280000000     0.108320000000     0.0505766  
H68      H      0.338410000000     0.427970000000     0.917680000000     0.0286645  
H69      H      0.281790000000     0.369040000000     0.953930000000     0.0382468  
H70      H      0.282910000000     0.357720000000     0.080160000000     0.0440954  
H71      H      0.317500000000     0.474630000000     0.059800000000     0.0844524  
H72      H      0.282110000000     0.433880000000     0.017840000000     0.0840663  
H73      H      0.409010000000     0.123500000000     0.128750000000     0.0405029  
H74      H      0.322560000000     0.119240000000     0.102300000000     0.0376829  
H75      H      0.463920000000     0.169260000000     0.045690000000     0.0201564  
H76      H      0.412280000000     0.206620000000     0.978990000000     0.0532334  
H77      H      0.384930000000     0.066130000000     0.108480000000     0.0383305  
H78      H      0.332570000000     0.093730000000     0.026370000000     0.0357606  
H79      H      0.387740000000     0.155210000000     0.940830000000     0.0420919  
H80      H      0.511900000000     0.136170000000     0.970040000000     0.0960137  
H81      H      0.463470000000     0.124340000000     0.918100000000     0.0966687  
H82      H      0.138630000000     0.084080000000     0.938110000000     0.0417909  
H83      H      0.211120000000     0.130320000000     0.942080000000     0.035274   
H84      H      0.122610000000     0.079150000000     0.135600000000     0.0222816  
H85      H      0.147830000000     0.152110000000     0.118510000000     0.0441188  
H86      H      0.179110000000     0.045030000000     0.963780000000     0.0255718  
H87      H      0.233390000000     0.103660000000     0.010500000000     0.0361075  
H88      H      0.208360000000     0.137000000000     0.122440000000     0.0464482  
H89      H      0.170760000000     0.019730000000     0.131240000000     0.089915   
H90      H      0.215380000000     0.050650000000     0.088710000000     0.0847947  
H91      H      0.196850000000     0.737020000000     0.790870000000     0.0382865  
H92      H      0.191280000000     0.677770000000     0.712450000000     0.0406274  
H93      H      0.298750000000     0.778880000000     0.784800000000     0.0179293  
H94      H      0.340490000000     0.733860000000     0.710960000000     0.0530391  
H95      H      0.191350000000     0.684410000000     0.833300000000     0.0409776  
H96      H      0.234720000000     0.647930000000     0.753280000000     0.0340919  
H97      H      0.322610000000     0.682840000000     0.754710000000     0.0441538  
H98      H      0.358360000000     0.776890000000     0.859170000000     0.0974715  
H99      H      0.350500000000     0.717610000000     0.866460000000     0.09528    
H100     H      0.283850000000     0.814310000000     0.263740000000     0.0348587  
H101     H      0.334810000000     0.773190000000     0.329480000000     0.0389125  
H102     H      0.202870000000     0.773750000000     0.280340000000     0.017509   
H103     H      0.194270000000     0.695440000000     0.326080000000     0.0537229  
H104     H      0.325400000000     0.791430000000     0.210820000000     0.0402621  
H105     H      0.329360000000     0.725630000000     0.276360000000     0.0380487  
H106     H      0.236500000000     0.679420000000     0.267600000000     0.0491128  
H107     H      0.156670000000     0.751280000000     0.182790000000     0.0982152  
H108     H      0.164560000000     0.694980000000     0.201560000000     0.0954959  
H109     H      0.214970000000     0.890030000000     0.515320000000     0.0378366  
H110     H      0.150920000000     0.913620000000     0.583340000000     0.0401659  
H111     H      0.179400000000     0.850770000000     0.411530000000     0.0180332  
H112     H      0.094640000000     0.856650000000     0.407510000000     0.0533765  
H113     H      0.210560000000     0.856990000000     0.587720000000     0.0369197  
H114     H      0.122530000000     0.855990000000     0.589630000000     0.0418441  
H115     H      0.082390000000     0.820440000000     0.475230000000     0.0461798  
H116     H      0.177930000000     0.772170000000     0.390880000000     0.0957887  
H117     H      0.124930000000     0.759230000000     0.434410000000     0.0970197  
H118     H      0.352580000000     0.828640000000     0.441920000000     0.0387288  
H119     H      0.438410000000     0.850030000000     0.424930000000     0.0396994  
H120     H      0.326830000000     0.860020000000     0.542160000000     0.0210551  
H121     H      0.393280000000     0.902480000000     0.602140000000     0.0434557  
H122     H      0.384110000000     0.778680000000     0.443930000000     0.0379745  
H123     H      0.453920000000     0.818040000000     0.492870000000     0.0358673  
H124     H      0.423440000000     0.852270000000     0.611160000000     0.0460833  
H125     H      0.319090000000     0.856620000000     0.653580000000     0.0797673  
H126     H      0.352950000000     0.812080000000     0.660230000000     0.0888561  
H127     H      0.450970000000     0.645610000000     0.476000000000     0.0373078  
H128     H      0.406770000000     0.668090000000     0.568410000000     0.043286   
H129     H      0.390570000000     0.594320000000     0.398560000000     0.0202692  
H130     H      0.309690000000     0.586560000000     0.444460000000     0.0495938  
H131     H      0.471860000000     0.618890000000     0.545560000000     0.0397074  
H132     H      0.391130000000     0.610060000000     0.591500000000     0.0379555  
H133     H      0.329420000000     0.558510000000     0.514170000000     0.0460178  
H134     H      0.392030000000     0.518260000000     0.375470000000     0.0963373  
H135     H      0.373380000000     0.499930000000     0.451210000000     0.092133   
H136     H      0.216570000000     0.577800000000     0.480130000000     0.0383708  
H137     H      0.203860000000     0.612410000000     0.583400000000     0.0309582  
H138     H      0.182560000000     0.618960000000     0.395280000000     0.0236591  
H139     H      0.142490000000     0.682910000000     0.435230000000     0.0443309  
H140     H      0.179150000000     0.537410000000     0.527990000000     0.0360672  
H141     H      0.139800000000     0.598750000000     0.578450000000     0.0491366  
H142     H      0.098650000000     0.645440000000     0.477710000000     0.0455556  
H143     H      0.116980000000     0.581740000000     0.331650000000     0.0969375  
H144     H      0.075290000000     0.606370000000     0.377440000000     0.0932894  
H145     H      0.043550000000     0.816310000000     0.006970000000     0.0381692  
H146     H      0.097730000000     0.779040000000     0.068900000000     0.0420943  
H147     H      0.102360000000     0.856670000000     0.915200000000     0.0212937  
H148     H      0.188650000000     0.861340000000     0.941450000000     0.0474154  
H149     H      0.044490000000     0.845310000000     0.081520000000     0.0417006  
H150     H      0.124280000000     0.830470000000     0.104990000000     0.0357545  
H151     H      0.179040000000     0.888960000000     0.016000000000     0.0450546  
H152     H      0.107920000000     0.932390000000     0.886640000000     0.094821   
H153     H      0.137150000000     0.951730000000     0.956810000000     0.0913108  
H154     H      0.385900000000     0.892170000000     0.913410000000     0.0391903  
H155     H      0.321070000000     0.837180000000     0.909830000000     0.0373132  
H156     H      0.362300000000     0.920960000000     0.107290000000     0.0234632  
H157     H      0.340810000000     0.846280000000     0.108320000000     0.0505674  
H158     H      0.338410000000     0.927970000000     0.917680000000     0.0286036  
H159     H      0.281790000000     0.869040000000     0.953930000000     0.0382353  
H160     H      0.282910000000     0.857720000000     0.080160000000     0.0440803  
H161     H      0.317500000000     0.974630000000     0.059800000000     0.0843223  
H162     H      0.282110000000     0.933880000000     0.017840000000     0.0840118  
H163     H      0.409010000000     0.623500000000     0.128750000000     0.0404835  
H164     H      0.322560000000     0.619240000000     0.102300000000     0.0376726  
H165     H      0.463920000000     0.669260000000     0.045690000000     0.0201521  
H166     H      0.412280000000     0.706610000000     0.978990000000     0.0532371  
H167     H      0.384930000000     0.566130000000     0.108480000000     0.0382377  
H168     H      0.332570000000     0.593730000000     0.026370000000     0.0357129  
H169     H      0.387740000000     0.655210000000     0.940830000000     0.0420617  
H170     H      0.511900000000     0.636170000000     0.970040000000     0.0959983  
H171     H      0.463460000000     0.624340000000     0.918100000000     0.0966151  
H172     H      0.138630000000     0.584080000000     0.938110000000     0.0417471  
H173     H      0.211120000000     0.630320000000     0.942080000000     0.0352602  
H174     H      0.122610000000     0.579150000000     0.135600000000     0.0222628  
H175     H      0.147830000000     0.652120000000     0.118510000000     0.0441061  
H176     H      0.179110000000     0.545030000000     0.963780000000     0.0254641  
H177     H      0.233390000000     0.603660000000     0.010500000000     0.0360843  
H178     H      0.208360000000     0.637000000000     0.122440000000     0.046445   
H179     H      0.170760000000     0.519740000000     0.131240000000     0.0898395  
H180     H      0.215380000000     0.550650000000     0.088710000000     0.0847291  
H181     H      0.696850000000     0.237030000000     0.790870000000     0.0383331  
H182     H      0.691280000000     0.177780000000     0.712450000000     0.0406758  
H183     H      0.798750000000     0.278880000000     0.784800000000     0.0179504  
H184     H      0.840490000000     0.233860000000     0.710960000000     0.053082   
H185     H      0.691360000000     0.184410000000     0.833300000000     0.0410392  
H186     H      0.734720000000     0.147930000000     0.753280000000     0.0341315  
H187     H      0.822610000000     0.182840000000     0.754710000000     0.0442034  
H188     H      0.858360000000     0.276890000000     0.859170000000     0.0975387  
H189     H      0.850500000000     0.217610000000     0.866460000000     0.0953282  
H190     H      0.783850000000     0.314310000000     0.263740000000     0.0348973  
H191     H      0.834810000000     0.273200000000     0.329480000000     0.0389483  
H192     H      0.702870000000     0.273750000000     0.280340000000     0.0175307  
H193     H      0.694270000000     0.195440000000     0.326080000000     0.0537391  
H194     H      0.825400000000     0.291430000000     0.210820000000     0.0403219  
H195     H      0.829370000000     0.225630000000     0.276360000000     0.0380893  
H196     H      0.736500000000     0.179420000000     0.267600000000     0.0491311  
H197     H      0.656670000000     0.251280000000     0.182790000000     0.0982554  
H198     H      0.664560000000     0.194980000000     0.201560000000     0.095526   
H199     H      0.714970000000     0.390030000000     0.515320000000     0.0378961  
H200     H      0.650920000000     0.413620000000     0.583340000000     0.0402598  
H201     H      0.679400000000     0.350770000000     0.411530000000     0.0180574  
H202     H      0.594640000000     0.356650000000     0.407510000000     0.0535036  
H203     H      0.710570000000     0.356990000000     0.587720000000     0.0369678  
H204     H      0.622530000000     0.356000000000     0.589630000000     0.041954   
H205     H      0.582390000000     0.320440000000     0.475230000000     0.0463381  
H206     H      0.677930000000     0.272170000000     0.390880000000     0.0957675  
H207     H      0.624940000000     0.259230000000     0.434410000000     0.09708    
H208     H      0.852580000000     0.328640000000     0.441920000000     0.0387544  
H209     H      0.938410000000     0.350030000000     0.424930000000     0.0398472  
H210     H      0.826830000000     0.360030000000     0.542160000000     0.0210733  
H211     H      0.893280000000     0.402480000000     0.602140000000     0.043551   
H212     H      0.884110000000     0.278680000000     0.443930000000     0.0380311  
H213     H      0.953920000000     0.318040000000     0.492870000000     0.0360459  
H214     H      0.923450000000     0.352260000000     0.611160000000     0.0462045  
H215     H      0.819090000000     0.356620000000     0.653580000000     0.0798186  
H216     H      0.852950000000     0.312080000000     0.660230000000     0.0889064  
H217     H      0.950970000000     0.145610000000     0.476000000000     0.0374764  
H218     H      0.906770000000     0.168090000000     0.568410000000     0.0433611  
H219     H      0.890570000000     0.094310000000     0.398560000000     0.0203271  
H220     H      0.809690000000     0.086560000000     0.444460000000     0.0496399  
H221     H      0.971860000000     0.118890000000     0.545560000000     0.0399379  
H222     H      0.891130000000     0.110060000000     0.591500000000     0.0380502  
H223     H      0.829430000000     0.058510000000     0.514170000000     0.0461279  
H224     H      0.892030000000     0.018260000000     0.375470000000     0.0964947  
H225     H      0.873380000000     0.999930000000     0.451210000000     0.0917654  
H226     H      0.716570000000     0.077810000000     0.480130000000     0.0384147  
H227     H      0.703870000000     0.112410000000     0.583400000000     0.0309814  
H228     H      0.682560000000     0.118960000000     0.395280000000     0.0236603  
H229     H      0.642490000000     0.182910000000     0.435230000000     0.0443769  
H230     H      0.679150000000     0.037410000000     0.527990000000     0.0361791  
H231     H      0.639800000000     0.098750000000     0.578450000000     0.0492285  
H232     H      0.598650000000     0.145440000000     0.477710000000     0.0457057  
H233     H      0.616980000000     0.081740000000     0.331650000000     0.0970768  
H234     H      0.575290000000     0.106370000000     0.377440000000     0.0934699  
H235     H      0.543550000000     0.316310000000     0.006970000000     0.0383498  
H236     H      0.597720000000     0.279030000000     0.068900000000     0.042166   
H237     H      0.602360000000     0.356670000000     0.915200000000     0.0213744  
H238     H      0.688650000000     0.361340000000     0.941450000000     0.0474439  
H239     H      0.544490000000     0.345320000000     0.081520000000     0.0418679  
H240     H      0.624280000000     0.330470000000     0.104990000000     0.0357943  
H241     H      0.679040000000     0.388960000000     0.016000000000     0.0450913  
H242     H      0.607920000000     0.432390000000     0.886640000000     0.0949421  
H243     H      0.637160000000     0.451730000000     0.956810000000     0.0914076  
H244     H      0.885900000000     0.392170000000     0.913410000000     0.0393131  
H245     H      0.821080000000     0.337180000000     0.909830000000     0.0373348  
H246     H      0.862300000000     0.420970000000     0.107290000000     0.0235632  
H247     H      0.840810000000     0.346280000000     0.108320000000     0.0506352  
H248     H      0.838410000000     0.427970000000     0.917680000000     0.0286963  
H249     H      0.781790000000     0.369040000000     0.953930000000     0.038246   
H250     H      0.782910000000     0.357720000000     0.080160000000     0.0441159  
H251     H      0.817500000000     0.474630000000     0.059800000000     0.0844646  
H252     H      0.782110000000     0.433880000000     0.017840000000     0.0840666  
H253     H      0.909010000000     0.123500000000     0.128750000000     0.0406066  
H254     H      0.822560000000     0.119240000000     0.102300000000     0.0376921  
H255     H      0.963920000000     0.169260000000     0.045690000000     0.0203764  
H256     H      0.912280000000     0.206620000000     0.978990000000     0.0533276  
H257     H      0.884930000000     0.066130000000     0.108480000000     0.038372   
H258     H      0.832560000000     0.093730000000     0.026370000000     0.0357575  
H259     H      0.887740000000     0.155210000000     0.940830000000     0.042112   
H260     H      0.011900000000     0.136170000000     0.970040000000     0.0953547  
H261     H      0.963460000000     0.124340000000     0.918100000000     0.0967635  
H262     H      0.638630000000     0.084080000000     0.938110000000     0.0418351  
H263     H      0.711120000000     0.130320000000     0.942080000000     0.0352791  
H264     H      0.622610000000     0.079150000000     0.135600000000     0.0223346  
H265     H      0.647830000000     0.152110000000     0.118510000000     0.0441625  
H266     H      0.679110000000     0.045030000000     0.963780000000     0.0255729  
H267     H      0.733390000000     0.103660000000     0.010500000000     0.0361016  
H268     H      0.708360000000     0.137000000000     0.122440000000     0.0464488  
H269     H      0.670760000000     0.019730000000     0.131240000000     0.0899193  
H270     H      0.715380000000     0.050650000000     0.088710000000     0.0847939  
H271     H      0.696850000000     0.737020000000     0.790870000000     0.0383284  
H272     H      0.691280000000     0.677770000000     0.712450000000     0.0406734  
H273     H      0.798750000000     0.778880000000     0.784800000000     0.0179461  
H274     H      0.840500000000     0.733860000000     0.710960000000     0.0530678  
H275     H      0.691350000000     0.684410000000     0.833300000000     0.041017   
H276     H      0.734720000000     0.647930000000     0.753280000000     0.0341101  
H277     H      0.822610000000     0.682840000000     0.754710000000     0.0441813  
H278     H      0.858360000000     0.776890000000     0.859170000000     0.0975323  
H279     H      0.850500000000     0.717610000000     0.866460000000     0.095314   
H280     H      0.783850000000     0.814310000000     0.263740000000     0.0348806  
H281     H      0.834810000000     0.773190000000     0.329480000000     0.0389315  
H282     H      0.702870000000     0.773750000000     0.280340000000     0.0175209  
H283     H      0.694280000000     0.695440000000     0.326080000000     0.0537566  
H284     H      0.825400000000     0.791430000000     0.210820000000     0.0403114  
H285     H      0.829360000000     0.725630000000     0.276360000000     0.0380717  
H286     H      0.736500000000     0.679420000000     0.267600000000     0.0491258  
H287     H      0.656660000000     0.751280000000     0.182790000000     0.0982352  
H288     H      0.664560000000     0.694980000000     0.201560000000     0.0955232  
H289     H      0.714970000000     0.890030000000     0.515320000000     0.0378222  
H290     H      0.650910000000     0.913620000000     0.583340000000     0.0402008  
H291     H      0.679390000000     0.850770000000     0.411530000000     0.0180292  
H292     H      0.594640000000     0.856650000000     0.407510000000     0.0534761  
H293     H      0.710560000000     0.856990000000     0.587720000000     0.0369212  
H294     H      0.622530000000     0.855990000000     0.589630000000     0.0419389  
H295     H      0.582390000000     0.820440000000     0.475230000000     0.0463365  
H296     H      0.677930000000     0.772170000000     0.390880000000     0.0957976  
H297     H      0.624930000000     0.759230000000     0.434410000000     0.0970935  
H298     H      0.852580000000     0.828640000000     0.441920000000     0.0387359  
H299     H      0.938400000000     0.850030000000     0.424930000000     0.0398499  
H300     H      0.826830000000     0.860020000000     0.542160000000     0.0210505  
H301     H      0.893270000000     0.902480000000     0.602140000000     0.0435011  
H302     H      0.884110000000     0.778680000000     0.443930000000     0.038026   
H303     H      0.953920000000     0.818040000000     0.492870000000     0.0360669  
H304     H      0.923440000000     0.852270000000     0.611160000000     0.0462127  
H305     H      0.819090000000     0.856620000000     0.653580000000     0.0797917  
H306     H      0.852950000000     0.812080000000     0.660230000000     0.0889011  
H307     H      0.950980000000     0.645610000000     0.476000000000     0.0374646  
H308     H      0.906770000000     0.668090000000     0.568410000000     0.0433631  
H309     H      0.890570000000     0.594320000000     0.398560000000     0.0203358  
H310     H      0.809690000000     0.586560000000     0.444460000000     0.0495991  
H311     H      0.971860000000     0.618890000000     0.545560000000     0.0399072  
H312     H      0.891130000000     0.610060000000     0.591500000000     0.0380067  
H313     H      0.829420000000     0.558510000000     0.514170000000     0.046026   
H314     H      0.892030000000     0.518260000000     0.375470000000     0.0964186  
H315     H      0.873380000000     0.499930000000     0.451210000000     0.092158   
H316     H      0.716570000000     0.577800000000     0.480130000000     0.0383613  
H317     H      0.703860000000     0.612410000000     0.583400000000     0.03099    
H318     H      0.682560000000     0.618960000000     0.395280000000     0.0236507  
H319     H      0.642490000000     0.682910000000     0.435230000000     0.0443783  
H320     H      0.679150000000     0.537410000000     0.527990000000     0.0360589  
H321     H      0.639810000000     0.598750000000     0.578450000000     0.0492195  
H322     H      0.598650000000     0.645440000000     0.477710000000     0.0456965  
H323     H      0.616980000000     0.581740000000     0.331650000000     0.096988   
H324     H      0.575290000000     0.606370000000     0.377440000000     0.0934456  
H325     H      0.543550000000     0.816310000000     0.006970000000     0.038354   
H326     H      0.597730000000     0.779040000000     0.068900000000     0.0421654  
H327     H      0.602360000000     0.856670000000     0.915200000000     0.0213772  
H328     H      0.688650000000     0.861340000000     0.941450000000     0.0474223  
H329     H      0.544490000000     0.845310000000     0.081520000000     0.0418556  
H330     H      0.624280000000     0.830470000000     0.104990000000     0.0357717  
H331     H      0.679040000000     0.888960000000     0.016000000000     0.0450484  
H332     H      0.607910000000     0.932390000000     0.886640000000     0.0948522  
H333     H      0.637150000000     0.951730000000     0.956810000000     0.0912958  
H334     H      0.885900000000     0.892170000000     0.913410000000     0.0392986  
H335     H      0.821070000000     0.837180000000     0.909830000000     0.0373316  
H336     H      0.862300000000     0.920960000000     0.107290000000     0.0235256  
H337     H      0.840810000000     0.846280000000     0.108320000000     0.0506204  
H338     H      0.838410000000     0.927970000000     0.917680000000     0.0286349  
H339     H      0.781790000000     0.869040000000     0.953930000000     0.0382289  
H340     H      0.782910000000     0.857720000000     0.080160000000     0.0440824  
H341     H      0.817500000000     0.974630000000     0.059800000000     0.0843351  
H342     H      0.782110000000     0.933880000000     0.017840000000     0.0840118  
H343     H      0.909010000000     0.623500000000     0.128750000000     0.0405785  
H344     H      0.822560000000     0.619240000000     0.102300000000     0.0376828  
H345     H      0.963920000000     0.669260000000     0.045690000000     0.0203784  
H346     H      0.912280000000     0.706610000000     0.978990000000     0.0533366  
H347     H      0.884920000000     0.566130000000     0.108480000000     0.0382709  
H348     H      0.832570000000     0.593730000000     0.026370000000     0.0357176  
H349     H      0.887740000000     0.655210000000     0.940830000000     0.0420912  
H350     H      0.011900000000     0.636170000000     0.970040000000     0.0953333  
H351     H      0.963460000000     0.624340000000     0.918100000000     0.0967232  
H352     H      0.638630000000     0.584080000000     0.938110000000     0.0417945  
H353     H      0.711120000000     0.630320000000     0.942080000000     0.0352697  
H354     H      0.622610000000     0.579150000000     0.135600000000     0.0223125  
H355     H      0.647830000000     0.652120000000     0.118510000000     0.0441584  
H356     H      0.679110000000     0.545030000000     0.963780000000     0.0254664  
H357     H      0.733390000000     0.603660000000     0.010500000000     0.036081   
H358     H      0.708360000000     0.637000000000     0.122440000000     0.0464487  
H359     H      0.670760000000     0.519740000000     0.131240000000     0.0898627  
H360     H      0.715370000000     0.550650000000     0.088710000000     0.0847305  
N1       N      0.261080000000     0.224580000000     0.837670000000    -0.19068    
N2       N      0.265300000000     0.206910000000     0.705150000000    -0.17711    
N3       N      0.349580000000     0.245660000000     0.836310000000    -0.19775    
N4       N      0.251710000000     0.259140000000     0.208230000000    -0.191511   
N5       N      0.267440000000     0.229030000000     0.333170000000    -0.175599   
N6       N      0.165180000000     0.228290000000     0.217710000000    -0.198624   
N7       N      0.183880000000     0.321890000000     0.503090000000    -0.190359   
N8       N      0.115400000000     0.385680000000     0.498820000000    -0.161396   
N9       N      0.146220000000     0.283680000000     0.407540000000    -0.19922    
N10      N      0.359600000000     0.299030000000     0.533290000000    -0.233702   
N11      N      0.424360000000     0.378080000000     0.517500000000    -0.168468   
N12      N      0.329310000000     0.327720000000     0.631060000000    -0.191391   
N13      N      0.428640000000     0.075100000000     0.479900000000    -0.176476   
N14      N      0.353310000000     0.128660000000     0.510330000000    -0.172355   
N15      N      0.371410000000     0.024350000000     0.415530000000    -0.197553   
N16      N      0.142750000000     0.069520000000     0.453500000000    -0.18391    
N17      N      0.168850000000     0.151370000000     0.516940000000    -0.227924   
N18      N      0.111160000000     0.108600000000     0.361960000000    -0.199156   
N19      N      0.079910000000     0.382630000000     0.003330000000    -0.175956   
N20      N      0.150590000000     0.319730000000     0.012820000000    -0.172599   
N21      N      0.131580000000     0.425560000000     0.923120000000    -0.198565   
N22      N      0.373600000000     0.419080000000     0.005580000000    -0.182083   
N23      N      0.329730000000     0.334520000000     0.010500000000    -0.215829   
N24      N      0.303010000000     0.440410000000     0.058910000000    -0.198035   
N25      N      0.431500000000     0.101570000000     0.038520000000    -0.175876   
N26      N      0.359910000000     0.163320000000     0.032740000000    -0.172779   
N27      N      0.478650000000     0.145300000000     0.954780000000    -0.197238   
N28      N      0.132920000000     0.064940000000     0.036450000000    -0.182815   
N29      N      0.180800000000     0.148690000000     0.030140000000    -0.216219   
N30      N      0.187780000000     0.052460000000     0.121970000000    -0.197519   
N31      N      0.261080000000     0.724580000000     0.837670000000    -0.190685   
N32      N      0.265300000000     0.706910000000     0.705150000000    -0.177109   
N33      N      0.349580000000     0.745660000000     0.836310000000    -0.197756   
N34      N      0.251710000000     0.759140000000     0.208230000000    -0.191513   
N35      N      0.267440000000     0.729030000000     0.333170000000    -0.175596   
N36      N      0.165180000000     0.728290000000     0.217710000000    -0.198624   
N37      N      0.183880000000     0.821890000000     0.503090000000    -0.190382   
N38      N      0.115400000000     0.885680000000     0.498820000000    -0.161436   
N39      N      0.146220000000     0.783670000000     0.407540000000    -0.199242   
N40      N      0.359600000000     0.799030000000     0.533290000000    -0.233702   
N41      N      0.424360000000     0.878080000000     0.517500000000    -0.168462   
N42      N      0.329310000000     0.827720000000     0.631060000000    -0.191389   
N43      N      0.428640000000     0.575110000000     0.479900000000    -0.176478   
N44      N      0.353310000000     0.628660000000     0.510330000000    -0.172362   
N45      N      0.371410000000     0.524340000000     0.415530000000    -0.197835   
N46      N      0.142750000000     0.569520000000     0.453500000000    -0.183957   
N47      N      0.168850000000     0.651380000000     0.516940000000    -0.227957   
N48      N      0.111160000000     0.608610000000     0.361960000000    -0.199116   
N49      N      0.079910000000     0.882630000000     0.003330000000    -0.175956   
N50      N      0.150590000000     0.819730000000     0.012820000000    -0.172599   
N51      N      0.131580000000     0.925560000000     0.923120000000    -0.198566   
N52      N      0.373600000000     0.919080000000     0.005580000000    -0.182071   
N53      N      0.329730000000     0.834520000000     0.010500000000    -0.21582    
N54      N      0.303010000000     0.940410000000     0.058910000000    -0.198044   
N55      N      0.431500000000     0.601570000000     0.038520000000    -0.175912   
N56      N      0.359920000000     0.663330000000     0.032740000000    -0.172766   
N57      N      0.478650000000     0.645300000000     0.954780000000    -0.197227   
N58      N      0.132920000000     0.564940000000     0.036450000000    -0.182846   
N59      N      0.180800000000     0.648690000000     0.030140000000    -0.216158   
N60      N      0.187780000000     0.552460000000     0.121970000000    -0.197547   
N61      N      0.761080000000     0.224580000000     0.837670000000    -0.190673   
N62      N      0.765300000000     0.206910000000     0.705150000000    -0.177114   
N63      N      0.849590000000     0.245660000000     0.836310000000    -0.197726   
N64      N      0.751710000000     0.259140000000     0.208230000000    -0.191512   
N65      N      0.767440000000     0.229030000000     0.333170000000    -0.175599   
N66      N      0.665180000000     0.228290000000     0.217710000000    -0.198605   
N67      N      0.683880000000     0.321890000000     0.503090000000    -0.190358   
N68      N      0.615390000000     0.385680000000     0.498820000000    -0.161421   
N69      N      0.646220000000     0.283680000000     0.407540000000    -0.199228   
N70      N      0.859600000000     0.299030000000     0.533290000000    -0.233701   
N71      N      0.924360000000     0.378080000000     0.517500000000    -0.168393   
N72      N      0.829310000000     0.327720000000     0.631060000000    -0.191402   
N73      N      0.928640000000     0.075100000000     0.479900000000    -0.176402   
N74      N      0.853310000000     0.128660000000     0.510330000000    -0.172371   
N75      N      0.871410000000     0.024350000000     0.415530000000    -0.197559   
N76      N      0.642750000000     0.069520000000     0.453500000000    -0.183924   
N77      N      0.668850000000     0.151370000000     0.516940000000    -0.227902   
N78      N      0.611160000000     0.108600000000     0.361960000000    -0.199158   
N79      N      0.579910000000     0.382630000000     0.003330000000    -0.175942   
N80      N      0.650590000000     0.319730000000     0.012820000000    -0.172571   
N81      N      0.631580000000     0.425560000000     0.923120000000    -0.198562   
N82      N      0.873600000000     0.419080000000     0.005580000000    -0.18202    
N83      N      0.829730000000     0.334520000000     0.010500000000    -0.21581    
N84      N      0.803010000000     0.440410000000     0.058910000000    -0.198034   
N85      N      0.931500000000     0.101570000000     0.038520000000    -0.175819   
N86      N      0.859920000000     0.163320000000     0.032740000000    -0.172721   
N87      N      0.978650000000     0.145300000000     0.954780000000    -0.196711   
N88      N      0.632920000000     0.064940000000     0.036450000000    -0.182856   
N89      N      0.680800000000     0.148690000000     0.030140000000    -0.216245   
N90      N      0.687780000000     0.052460000000     0.121970000000    -0.19752    
N91      N      0.761080000000     0.724580000000     0.837670000000    -0.190684   
N92      N      0.765300000000     0.706910000000     0.705150000000    -0.177106   
N93      N      0.849580000000     0.745660000000     0.836310000000    -0.197735   
N94      N      0.751710000000     0.759140000000     0.208230000000    -0.191536   
N95      N      0.767440000000     0.729030000000     0.333170000000    -0.175601   
N96      N      0.665180000000     0.728290000000     0.217710000000    -0.198593   
N97      N      0.683880000000     0.821890000000     0.503090000000    -0.190384   
N98      N      0.615400000000     0.885680000000     0.498820000000    -0.161422   
N99      N      0.646220000000     0.783670000000     0.407540000000    -0.199228   
N100     N      0.859600000000     0.799030000000     0.533290000000    -0.233691   
N101     N      0.924360000000     0.878080000000     0.517500000000    -0.1684     
N102     N      0.829310000000     0.827720000000     0.631060000000    -0.191397   
N103     N      0.928640000000     0.575110000000     0.479900000000    -0.176405   
N104     N      0.853310000000     0.628660000000     0.510330000000    -0.172356   
N105     N      0.871410000000     0.524340000000     0.415530000000    -0.19784    
N106     N      0.642750000000     0.569520000000     0.453500000000    -0.183982   
N107     N      0.668850000000     0.651380000000     0.516940000000    -0.227921   
N108     N      0.611160000000     0.608610000000     0.361960000000    -0.199118   
N109     N      0.579910000000     0.882630000000     0.003330000000    -0.17594    
N110     N      0.650590000000     0.819730000000     0.012820000000    -0.172627   
N111     N      0.631580000000     0.925560000000     0.923120000000    -0.198536   
N112     N      0.873600000000     0.919080000000     0.005580000000    -0.182012   
N113     N      0.829730000000     0.834520000000     0.010500000000    -0.215794   
N114     N      0.803010000000     0.940410000000     0.058910000000    -0.198043   
N115     N      0.931490000000     0.601570000000     0.038520000000    -0.175799   
N116     N      0.859920000000     0.663330000000     0.032740000000    -0.172753   
N117     N      0.978650000000     0.645300000000     0.954780000000    -0.196704   
N118     N      0.632920000000     0.564940000000     0.036450000000    -0.182858   
N119     N      0.680800000000     0.648690000000     0.030140000000    -0.216142   
N120     N      0.687770000000     0.552460000000     0.121970000000    -0.197574   
O1       O      0.041210000000     0.439840000000     0.959380000000    -0.395668   
O2       O      0.471540000000     0.053100000000     0.977130000000    -0.393654   
O3       O      0.069940000000     0.033130000000     0.976080000000    -0.408671   
O4       O      0.440900000000     0.457390000000     0.959800000000    -0.402706   
O5       O      0.437900000000     0.448570000000     0.065440000000    -0.407545   
O6       O      0.066520000000     0.024560000000     0.081730000000    -0.405347   
O7       O      0.466310000000     0.041960000000     0.082110000000    -0.392391   
O8       O      0.036970000000     0.428820000000     0.064430000000    -0.389855   
O9       O      0.068680000000     0.429300000000     0.439400000000    -0.390954   
O10      O      0.470680000000     0.021960000000     0.430350000000    -0.39482    
O11      O      0.075530000000     0.025800000000     0.416330000000    -0.406173   
O12      O      0.468250000000     0.426150000000     0.449880000000    -0.410821   
O13      O      0.471730000000     0.440960000000     0.554270000000    -0.401936   
O14      O      0.087190000000     0.033180000000     0.521250000000    -0.40841    
O15      O      0.484420000000     0.038040000000     0.533010000000    -0.396934   
O16      O      0.074210000000     0.439790000000     0.544650000000    -0.397082   
O17      O      0.289650000000     0.259540000000     0.929440000000    -0.480389   
O18      O      0.285830000000     0.273080000000     0.109570000000    -0.476351   
O19      O      0.336360000000     0.234460000000     0.017010000000    -0.450415   
O20      O      0.228850000000     0.304540000000     0.003410000000    -0.476373   
O21      O      0.173710000000     0.248490000000     0.030490000000    -0.447206   
O22      O      0.281330000000     0.177860000000     0.042640000000    -0.470492   
O23      O      0.221910000000     0.222770000000     0.117370000000    -0.469422   
O24      O      0.224560000000     0.210880000000     0.935460000000    -0.471647   
O25      O      0.298000000000     0.250070000000     0.432060000000    -0.47259    
O26      O      0.298190000000     0.238400000000     0.613770000000    -0.476583   
O27      O      0.339490000000     0.202580000000     0.522860000000    -0.463782   
O28      O      0.255400000000     0.296590000000     0.531520000000    -0.473492   
O29      O      0.195070000000     0.246610000000     0.502330000000    -0.475697   
O30      O      0.276800000000     0.151070000000     0.506170000000    -0.458978   
O31      O      0.228710000000     0.195900000000     0.607590000000    -0.482512   
O32      O      0.234670000000     0.198430000000     0.425190000000    -0.475972   
O33      O      0.041210000000     0.939840000000     0.959380000000    -0.395632   
O34      O      0.471540000000     0.553100000000     0.977130000000    -0.393967   
O35      O      0.069940000000     0.533130000000     0.976080000000    -0.409012   
O36      O      0.440900000000     0.957390000000     0.959800000000    -0.402707   
O37      O      0.437900000000     0.948580000000     0.065440000000    -0.407576   
O38      O      0.066520000000     0.524560000000     0.081730000000    -0.405707   
O39      O      0.466310000000     0.541960000000     0.082110000000    -0.392758   
O40      O      0.036970000000     0.928820000000     0.064430000000    -0.389878   
O41      O      0.068680000000     0.929310000000     0.439400000000    -0.39091    
O42      O      0.470690000000     0.521960000000     0.430350000000    -0.395153   
O43      O      0.075530000000     0.525800000000     0.416330000000    -0.406502   
O44      O      0.468250000000     0.926150000000     0.449880000000    -0.410797   
O45      O      0.471720000000     0.940960000000     0.554270000000    -0.401926   
O46      O      0.087190000000     0.533180000000     0.521250000000    -0.408774   
O47      O      0.484420000000     0.538040000000     0.533010000000    -0.397278   
O48      O      0.074210000000     0.939790000000     0.544650000000    -0.397031   
O49      O      0.289650000000     0.759540000000     0.929440000000    -0.48038    
O50      O      0.285830000000     0.773080000000     0.109570000000    -0.476347   
O51      O      0.336360000000     0.734460000000     0.017010000000    -0.450392   
O52      O      0.228850000000     0.804540000000     0.003410000000    -0.476378   
O53      O      0.173710000000     0.748490000000     0.030490000000    -0.447257   
O54      O      0.281330000000     0.677860000000     0.042640000000    -0.470438   
O55      O      0.221910000000     0.722770000000     0.117370000000    -0.469433   
O56      O      0.224560000000     0.710880000000     0.935460000000    -0.471644   
O57      O      0.298000000000     0.750070000000     0.432060000000    -0.472549   
O58      O      0.298190000000     0.738400000000     0.613770000000    -0.47652    
O59      O      0.339490000000     0.702580000000     0.522860000000    -0.463781   
O60      O      0.255400000000     0.796590000000     0.531520000000    -0.473542   
O61      O      0.195070000000     0.746620000000     0.502330000000    -0.475737   
O62      O      0.276800000000     0.651070000000     0.506170000000    -0.458984   
O63      O      0.228710000000     0.695900000000     0.607590000000    -0.482576   
O64      O      0.234670000000     0.698430000000     0.425190000000    -0.476027   
O65      O      0.541210000000     0.439840000000     0.959380000000    -0.395707   
O66      O      0.971540000000     0.053100000000     0.977130000000    -0.392971   
O67      O      0.569940000000     0.033130000000     0.976080000000    -0.408728   
O68      O      0.940900000000     0.457390000000     0.959800000000    -0.402094   
O69      O      0.937900000000     0.448570000000     0.065440000000    -0.406923   
O70      O      0.566520000000     0.024560000000     0.081730000000    -0.405403   
O71      O      0.966310000000     0.041960000000     0.082110000000    -0.391724   
O72      O      0.536970000000     0.428820000000     0.064430000000    -0.389897   
O73      O      0.568680000000     0.429300000000     0.439400000000    -0.391038   
O74      O      0.970680000000     0.021960000000     0.430350000000    -0.394206   
O75      O      0.575520000000     0.025800000000     0.416330000000    -0.406253   
O76      O      0.968250000000     0.426150000000     0.449880000000    -0.410193   
O77      O      0.971720000000     0.440960000000     0.554270000000    -0.401299   
O78      O      0.587190000000     0.033180000000     0.521250000000    -0.408483   
O79      O      0.984420000000     0.038040000000     0.533010000000    -0.396292   
O80      O      0.574220000000     0.439790000000     0.544650000000    -0.397135   
O81      O      0.789650000000     0.259540000000     0.929440000000    -0.480403   
O82      O      0.785830000000     0.273080000000     0.109570000000    -0.476354   
O83      O      0.836360000000     0.234460000000     0.017010000000    -0.450366   
O84      O      0.728860000000     0.304540000000     0.003410000000    -0.476361   
O85      O      0.673710000000     0.248490000000     0.030490000000    -0.44721    
O86      O      0.781330000000     0.177860000000     0.042640000000    -0.470417   
O87      O      0.721910000000     0.222770000000     0.117370000000    -0.469438   
O88      O      0.724560000000     0.210880000000     0.935460000000    -0.471644   
O89      O      0.798000000000     0.250070000000     0.432060000000    -0.472593   
O90      O      0.798190000000     0.238400000000     0.613770000000    -0.47652    
O91      O      0.839480000000     0.202580000000     0.522860000000    -0.46386    
O92      O      0.755400000000     0.296590000000     0.531520000000    -0.473512   
O93      O      0.695070000000     0.246610000000     0.502330000000    -0.475688   
O94      O      0.776800000000     0.151070000000     0.506170000000    -0.458998   
O95      O      0.728710000000     0.195900000000     0.607590000000    -0.482559   
O96      O      0.734670000000     0.198430000000     0.425190000000    -0.475979   
O97      O      0.541210000000     0.939840000000     0.959380000000    -0.395672   
O98      O      0.971540000000     0.553100000000     0.977130000000    -0.393304   
O99      O      0.569940000000     0.533130000000     0.976080000000    -0.40911    
O100     O      0.940900000000     0.957390000000     0.959800000000    -0.402114   
O101     O      0.937890000000     0.948580000000     0.065440000000    -0.406941   
O102     O      0.566520000000     0.524560000000     0.081730000000    -0.405797   
O103     O      0.966310000000     0.541960000000     0.082110000000    -0.392114   
O104     O      0.536970000000     0.928820000000     0.064430000000    -0.389924   
O105     O      0.568680000000     0.929310000000     0.439400000000    -0.390982   
O106     O      0.970690000000     0.521960000000     0.430350000000    -0.394537   
O107     O      0.575530000000     0.525800000000     0.416330000000    -0.40659    
O108     O      0.968250000000     0.926150000000     0.449880000000    -0.410118   
O109     O      0.971720000000     0.940960000000     0.554270000000    -0.401267   
O110     O      0.587190000000     0.533180000000     0.521250000000    -0.408868   
O111     O      0.984420000000     0.538040000000     0.533010000000    -0.39663    
O112     O      0.574210000000     0.939790000000     0.544650000000    -0.39709    
O113     O      0.789650000000     0.759540000000     0.929440000000    -0.480379   
O114     O      0.785820000000     0.773080000000     0.109570000000    -0.476425   
O115     O      0.836360000000     0.734460000000     0.017010000000    -0.450355   
O116     O      0.728850000000     0.804540000000     0.003410000000    -0.476284   
O117     O      0.673710000000     0.748490000000     0.030490000000    -0.447215   
O118     O      0.781330000000     0.677860000000     0.042640000000    -0.470445   
O119     O      0.721910000000     0.722770000000     0.117370000000    -0.469467   
O120     O      0.724560000000     0.710880000000     0.935460000000    -0.471633   
O121     O      0.798000000000     0.750070000000     0.432060000000    -0.472545   
O122     O      0.798190000000     0.738400000000     0.613770000000    -0.476509   
O123     O      0.839490000000     0.702580000000     0.522860000000    -0.463754   
O124     O      0.755400000000     0.796590000000     0.531520000000    -0.473545   
O125     O      0.695070000000     0.746620000000     0.502330000000    -0.475719   
O126     O      0.776800000000     0.651070000000     0.506170000000    -0.458986   
O127     O      0.728710000000     0.695900000000     0.607590000000    -0.482558   
O128     O      0.734670000000     0.698430000000     0.425190000000    -0.47603    


