data_structure

_audit_creation_method RASPA-1.0
_audit_creation_date 2023-5-19
_audit_author_name 'Poobodin Mano'

_cell_length_a    41.4668
_cell_length_b    41.96
_cell_length_c    41.6924
_cell_angle_alpha 90
_cell_angle_beta  90
_cell_angle_gamma 90
_cell_volume      72542.6

_symmetry_cell_setting          triclinic
_symmetry_space_group_name_Hall 'P 1'
_symmetry_space_group_name_H-M  'P 1'
_symmetry_Int_Tables_number     1

_symmetry_equiv_pos_as_xyz 'x,y,z'

loop_
_atom_site_label
_atom_site_type_symbol
_atom_site_fract_x
_atom_site_fract_y
_atom_site_fract_z
_atom_site_charge
C1       C      0.532870000000     0.082510000000     0.289250000000     0.404053   
C2       C      0.010840000000     0.460510000000     0.262260000000     0.404652   
C3       C      0.459130000000     0.030840000000     0.284350000000     0.40362    
C4       C      0.084450000000     0.511160000000     0.266870000000     0.406388   
C5       C      0.013430000000     0.204270000000     0.271560000000     0.404262   
C6       C      0.012980000000     0.331160000000     0.265710000000     0.398278   
C7       C      0.995350000000     0.265000000000     0.207240000000     0.404742   
C8       C      0.029920000000     0.270270000000     0.329640000000     0.403777   
C9       C      0.338390000000     0.004160000000     0.262050000000     0.399075   
C10      C      0.211690000000     0.992330000000     0.247420000000     0.408726   
C11      C      0.284470000000     0.983620000000     0.194170000000     0.40964    
C12      C      0.266000000000     0.012710000000     0.316760000000     0.400525   
C13      C      0.277290000000     0.005540000000     0.070620000000     0.4013     
C14      C      0.278840000000     0.505520000000     0.443010000000     0.402343   
C15      C      0.269420000000     0.069040000000     0.006010000000     0.403149   
C16      C      0.286680000000     0.443730000000     0.507350000000     0.404616   
C17      C      0.989000000000     0.264170000000     0.078600000000     0.401958   
C18      C      0.531960000000     0.271900000000     0.458360000000     0.39967    
C19      C      0.069510000000     0.281330000000     0.038630000000     0.404376   
C20      C      0.450760000000     0.254760000000     0.498090000000     0.40037    
C21      C      0.193930000000     0.264850000000     0.022130000000     0.394553   
C22      C      0.320900000000     0.254280000000     0.006110000000     0.396238   
C23      C      0.250850000000     0.197250000000     0.005260000000     0.399595   
C24      C      0.262890000000     0.322010000000     0.022350000000     0.396962   
C25      C      0.400820000000     0.269450000000     0.468990000000    -0.00934713 
C26      C      0.403380000000     0.219190000000     0.500810000000    -0.0169653  
C27      C      0.369800000000     0.279310000000     0.986140000000    -0.00599082 
C28      C      0.373630000000     0.229320000000     0.020480000000     0.0127156  
C29      C      0.355600000000     0.200430000000     0.529940000000     0.0545358  
C30      C      0.142060000000     0.287800000000     0.504530000000    -0.0110441  
C31      C      0.144600000000     0.249190000000     0.551250000000    -0.0174764  
C32      C      0.119000000000     0.308910000000     0.024100000000    -0.0106352  
C33      C      0.120240000000     0.270050000000     0.069260000000     0.014332   
C34      C      0.100660000000     0.250900000000     0.091700000000     0.0540507  
C35      C      0.245580000000     0.374760000000     0.504020000000    -0.00939906 
C36      C      0.286140000000     0.370080000000     0.048490000000    -0.0187648  
C37      C      0.269490000000     0.393470000000     0.484050000000    -0.00815057 
C38      C      0.309180000000     0.392540000000     0.029580000000     0.0101955  
C39      C      0.327840000000     0.412270000000     0.052280000000     0.0530554  
C40      C      0.228270000000     0.145410000000     0.022130000000    -0.00890886 
C41      C      0.262170000000     0.149860000000     0.472510000000    -0.0141457  
C42      C      0.246960000000     0.115670000000     0.032330000000    -0.0130106  
C43      C      0.283690000000     0.122510000000     0.484260000000     0.0100542  
C44      C      0.297490000000     0.106120000000     0.456100000000     0.0553452  
C45      C      0.302920000000     0.019410000000     0.390260000000    -0.011124   
C46      C      0.254410000000     0.483750000000     0.393870000000    -0.0155322  
C47      C      0.285510000000     0.039870000000     0.364850000000    -0.0124806  
C48      C      0.237250000000     0.503900000000     0.368640000000     0.0133066  
C49      C      0.214140000000     0.484010000000     0.350660000000     0.053079   
C50      C      0.303200000000     0.017260000000     0.122900000000    -0.014576   
C51      C      0.250760000000     0.486980000000     0.120520000000    -0.0171607  
C52      C      0.316630000000     0.992270000000     0.146000000000    -0.00318643 
C53      C      0.265140000000     0.461270000000     0.142660000000     0.010835   
C54      C      0.239310000000     0.445530000000     0.161260000000     0.0522344  
C55      C      0.042540000000     0.304550000000     0.410040000000    -0.0113699  
C56      C      0.061090000000     0.248240000000     0.411700000000    -0.0162796  
C57      C      0.523940000000     0.298500000000     0.379260000000    -0.0102748  
C58      C      0.546000000000     0.242090000000     0.378400000000     0.00938706 
C59      C      0.067380000000     0.221110000000     0.359520000000     0.0518839  
C60      C      0.463230000000     0.288500000000     0.126830000000    -0.0101363  
C61      C      0.477970000000     0.231120000000     0.126560000000    -0.014376   
C62      C      0.980260000000     0.293000000000     0.159220000000    -0.0133299  
C63      C      0.997840000000     0.234920000000     0.157210000000     0.0101131  
C64      C      0.495800000000     0.205050000000     0.175870000000     0.0546882  
C65      C      0.161110000000     0.011230000000     0.222340000000    -0.0138033  
C66      C      0.160270000000     0.464680000000     0.259220000000    -0.0156026  
C67      C      0.134790000000     0.027660000000     0.241700000000    -0.0119964  
C68      C      0.134540000000     0.480720000000     0.280490000000     0.0116996  
C69      C      0.113560000000     0.455580000000     0.293980000000     0.0621754  
C70      C      0.389950000000     0.488710000000     0.287460000000    -0.0120315  
C71      C      0.388080000000     0.031310000000     0.244610000000    -0.0167765  
C72      C      0.409090000000     0.511780000000     0.309000000000    -0.0135701  
C73      C      0.406090000000     0.053840000000     0.267020000000     0.0141485  
C74      C      0.423620000000     0.078770000000     0.249110000000     0.0548903  
C75      C      0.993770000000     0.381840000000     0.288450000000    -0.0123481  
C76      C      0.037900000000     0.381190000000     0.246620000000    -0.018802   
C77      C      0.480030000000     0.412020000000     0.273320000000    -0.00838868 
C78      C      0.523000000000     0.411010000000     0.230860000000     0.0130463  
C79      C      0.048740000000     0.429590000000     0.215000000000     0.0560459  
C80      C      0.493750000000     0.153310000000     0.295120000000    -0.0133853  
C81      C      0.038090000000     0.153850000000     0.253790000000    -0.0157816  
C82      C      0.514620000000     0.131000000000     0.316290000000    -0.0126418  
C83      C      0.059120000000     0.134250000000     0.276280000000     0.0134831  
C84      C      0.083920000000     0.116500000000     0.258310000000     0.0566106  
C85      C      0.532870000000     0.082510000000     0.789250000000     0.404284   
C86      C      0.010840000000     0.460510000000     0.762260000000     0.404629   
C87      C      0.459130000000     0.030840000000     0.784350000000     0.403609   
C88      C      0.084450000000     0.511160000000     0.766880000000     0.406377   
C89      C      0.013430000000     0.204270000000     0.771560000000     0.404189   
C90      C      0.012980000000     0.331160000000     0.765710000000     0.398347   
C91      C      0.995350000000     0.265000000000     0.707240000000     0.404731   
C92      C      0.029920000000     0.270270000000     0.829640000000     0.403773   
C93      C      0.338390000000     0.004160000000     0.762050000000     0.399154   
C94      C      0.211690000000     0.992330000000     0.747420000000     0.408707   
C95      C      0.284470000000     0.983620000000     0.694170000000     0.409618   
C96      C      0.266000000000     0.012710000000     0.816760000000     0.400539   
C97      C      0.277290000000     0.005540000000     0.570620000000     0.401497   
C98      C      0.278840000000     0.505520000000     0.943010000000     0.401905   
C99      C      0.269420000000     0.069040000000     0.506010000000     0.403734   
C100     C      0.286680000000     0.443730000000     0.007350000000     0.404333   
C101     C      0.989000000000     0.264170000000     0.578600000000     0.40218    
C102     C      0.531960000000     0.271900000000     0.958360000000     0.399224   
C103     C      0.069510000000     0.281330000000     0.538630000000     0.404663   
C104     C      0.450760000000     0.254760000000     0.998090000000     0.408834   
C105     C      0.193930000000     0.264850000000     0.522130000000     0.399378   
C106     C      0.320900000000     0.254280000000     0.506110000000     0.400522   
C107     C      0.250850000000     0.197250000000     0.505260000000     0.404108   
C108     C      0.262890000000     0.322010000000     0.522350000000     0.40176    
C109     C      0.400820000000     0.269450000000     0.968990000000    -0.010752   
C110     C      0.403380000000     0.219190000000     0.000810000000    -0.0241081  
C111     C      0.369800000000     0.279310000000     0.486140000000    -0.0132778  
C112     C      0.373630000000     0.229320000000     0.520490000000     0.0112301  
C113     C      0.355600000000     0.200430000000     0.029940000000     0.0532968  
C114     C      0.142060000000     0.287800000000     0.004530000000    -0.0205028  
C115     C      0.144600000000     0.249190000000     0.051250000000    -0.0179125  
C116     C      0.119000000000     0.308910000000     0.524100000000    -0.0131996  
C117     C      0.120240000000     0.270050000000     0.569260000000     0.0141307  
C118     C      0.100660000000     0.250900000000     0.591700000000     0.0541499  
C119     C      0.245580000000     0.374760000000     0.004020000000    -0.0185943  
C120     C      0.286140000000     0.370080000000     0.548490000000    -0.0180647  
C121     C      0.269490000000     0.393470000000     0.984050000000    -0.000165738
C122     C      0.309180000000     0.392540000000     0.529580000000     0.00979455 
C123     C      0.327840000000     0.412270000000     0.552280000000     0.0533898  
C124     C      0.228270000000     0.145410000000     0.522130000000    -0.00863767 
C125     C      0.262170000000     0.149860000000     0.972510000000    -0.0119085  
C126     C      0.246960000000     0.115670000000     0.532320000000    -0.0126273  
C127     C      0.283690000000     0.122510000000     0.984260000000     0.0120592  
C128     C      0.297490000000     0.106120000000     0.956100000000     0.0561725  
C129     C      0.302920000000     0.019410000000     0.890260000000    -0.0111547  
C130     C      0.254410000000     0.483750000000     0.893870000000    -0.0155785  
C131     C      0.285510000000     0.039870000000     0.864850000000    -0.0124672  
C132     C      0.237250000000     0.503900000000     0.868630000000     0.0133218  
C133     C      0.214140000000     0.484010000000     0.850660000000     0.0532629  
C134     C      0.303200000000     0.017260000000     0.622900000000    -0.0145773  
C135     C      0.250760000000     0.486980000000     0.620530000000    -0.0172041  
C136     C      0.316630000000     0.992270000000     0.646000000000    -0.00320804 
C137     C      0.265140000000     0.461270000000     0.642660000000     0.010847   
C138     C      0.239310000000     0.445530000000     0.661260000000     0.0522557  
C139     C      0.042540000000     0.304550000000     0.910040000000    -0.0114116  
C140     C      0.061090000000     0.248240000000     0.911710000000    -0.0163113  
C141     C      0.523940000000     0.298500000000     0.879260000000    -0.0102547  
C142     C      0.546000000000     0.242090000000     0.878400000000     0.00938416 
C143     C      0.067380000000     0.221110000000     0.859520000000     0.0520588  
C144     C      0.463230000000     0.288500000000     0.626830000000    -0.0101408  
C145     C      0.477970000000     0.231120000000     0.626560000000    -0.0143941  
C146     C      0.980260000000     0.293000000000     0.659220000000    -0.0133393  
C147     C      0.997840000000     0.234920000000     0.657210000000     0.0101195  
C148     C      0.495800000000     0.205050000000     0.675870000000     0.0547146  
C149     C      0.161110000000     0.011230000000     0.722340000000    -0.0137978  
C150     C      0.160270000000     0.464680000000     0.759220000000    -0.0156021  
C151     C      0.134790000000     0.027660000000     0.741700000000    -0.0120033  
C152     C      0.134540000000     0.480720000000     0.780490000000     0.011668   
C153     C      0.113560000000     0.455580000000     0.793980000000     0.0622781  
C154     C      0.389950000000     0.488710000000     0.787460000000    -0.0120219  
C155     C      0.388080000000     0.031310000000     0.744610000000    -0.0167835  
C156     C      0.409090000000     0.511780000000     0.809000000000    -0.0135995  
C157     C      0.406090000000     0.053840000000     0.767020000000     0.0141408  
C158     C      0.423620000000     0.078770000000     0.749110000000     0.0549245  
C159     C      0.993770000000     0.381840000000     0.788450000000    -0.0123706  
C160     C      0.037900000000     0.381190000000     0.746620000000    -0.0188045  
C161     C      0.480030000000     0.412020000000     0.773320000000    -0.008384   
C162     C      0.523000000000     0.411010000000     0.730860000000     0.0130333  
C163     C      0.048740000000     0.429590000000     0.715000000000     0.0560919  
C164     C      0.493750000000     0.153310000000     0.795130000000    -0.0134604  
C165     C      0.038090000000     0.153850000000     0.753790000000    -0.0157998  
C166     C      0.514620000000     0.131000000000     0.816290000000    -0.0126297  
C167     C      0.059120000000     0.134250000000     0.776280000000     0.0134877  
C168     C      0.083920000000     0.116500000000     0.758310000000     0.0566516  
C169     C      0.532870000000     0.582510000000     0.289250000000     0.404195   
C170     C      0.010840000000     0.960510000000     0.262260000000     0.404302   
C171     C      0.459130000000     0.530840000000     0.284350000000     0.404238   
C172     C      0.084450000000     0.011160000000     0.266870000000     0.405961   
C173     C      0.013430000000     0.704270000000     0.271560000000     0.404254   
C174     C      0.012980000000     0.831160000000     0.265710000000     0.398284   
C175     C      0.995350000000     0.765000000000     0.207240000000     0.404736   
C176     C      0.029920000000     0.770270000000     0.329640000000     0.403775   
C177     C      0.338390000000     0.504160000000     0.262050000000     0.402301   
C178     C      0.211690000000     0.492330000000     0.247420000000     0.405501   
C179     C      0.284470000000     0.483620000000     0.194170000000     0.40592    
C180     C      0.266000000000     0.512710000000     0.316760000000     0.404195   
C181     C      0.277290000000     0.505540000000     0.070620000000     0.401659   
C182     C      0.278840000000     0.005510000000     0.443010000000     0.402071   
C183     C      0.269420000000     0.569040000000     0.006010000000     0.40328    
C184     C      0.286680000000     0.943730000000     0.507350000000     0.404257   
C185     C      0.989000000000     0.764170000000     0.078600000000     0.401945   
C186     C      0.531960000000     0.771900000000     0.458360000000     0.399657   
C187     C      0.069510000000     0.781330000000     0.038630000000     0.404365   
C188     C      0.450760000000     0.754760000000     0.498090000000     0.400356   
C189     C      0.193930000000     0.764850000000     0.022130000000     0.39457    
C190     C      0.320900000000     0.754280000000     0.006110000000     0.396174   
C191     C      0.250850000000     0.697250000000     0.005260000000     0.3996     
C192     C      0.262890000000     0.822010000000     0.022350000000     0.396984   
C193     C      0.400820000000     0.769450000000     0.468990000000    -0.00935234 
C194     C      0.403380000000     0.719190000000     0.500810000000    -0.0169814  
C195     C      0.369800000000     0.779310000000     0.986140000000    -0.00602729 
C196     C      0.373630000000     0.729320000000     0.020480000000     0.0127167  
C197     C      0.355600000000     0.700430000000     0.529940000000     0.0545532  
C198     C      0.142060000000     0.787800000000     0.504530000000    -0.0110373  
C199     C      0.144600000000     0.749190000000     0.551250000000    -0.0174844  
C200     C      0.119000000000     0.808910000000     0.024100000000    -0.0106663  
C201     C      0.120240000000     0.770050000000     0.069260000000     0.0143256  
C202     C      0.100660000000     0.750900000000     0.091700000000     0.0540799  
C203     C      0.245580000000     0.874760000000     0.504020000000    -0.00942144 
C204     C      0.286140000000     0.870080000000     0.048490000000    -0.0187626  
C205     C      0.269490000000     0.893470000000     0.484050000000    -0.00815561 
C206     C      0.309180000000     0.892540000000     0.029580000000     0.010177   
C207     C      0.327840000000     0.912270000000     0.052280000000     0.053389   
C208     C      0.228270000000     0.645410000000     0.022130000000    -0.00891677 
C209     C      0.262170000000     0.649860000000     0.472510000000    -0.0141419  
C210     C      0.246960000000     0.615670000000     0.032330000000    -0.0130084  
C211     C      0.283690000000     0.622510000000     0.484260000000     0.0100524  
C212     C      0.297490000000     0.606120000000     0.456100000000     0.0553897  
C213     C      0.302920000000     0.519410000000     0.390260000000    -0.0113969  
C214     C      0.254410000000     0.983750000000     0.393870000000    -0.00987822 
C215     C      0.285510000000     0.539870000000     0.364850000000    -0.0119866  
C216     C      0.237250000000     0.003900000000     0.368640000000     0.00724556 
C217     C      0.214140000000     0.984010000000     0.350660000000     0.0569446  
C218     C      0.303200000000     0.517260000000     0.122900000000    -0.010908   
C219     C      0.250760000000     0.986980000000     0.120520000000    -0.01195    
C220     C      0.316630000000     0.492270000000     0.146000000000    -0.00944989 
C221     C      0.265140000000     0.961270000000     0.142660000000     0.0100107  
C222     C      0.239310000000     0.945530000000     0.161260000000     0.0529112  
C223     C      0.042540000000     0.804550000000     0.410040000000    -0.0114034  
C224     C      0.061090000000     0.748240000000     0.411700000000    -0.0162921  
C225     C      0.523940000000     0.798500000000     0.379260000000    -0.0102355  
C226     C      0.546000000000     0.742090000000     0.378400000000     0.00938655 
C227     C      0.067380000000     0.721100000000     0.359520000000     0.0519185  
C228     C      0.463230000000     0.788500000000     0.126830000000    -0.0101455  
C229     C      0.477970000000     0.731120000000     0.126560000000    -0.0143879  
C230     C      0.980260000000     0.793000000000     0.159220000000    -0.0133369  
C231     C      0.997840000000     0.734920000000     0.157210000000     0.0101119  
C232     C      0.495800000000     0.705060000000     0.175870000000     0.0546807  
C233     C      0.161110000000     0.511230000000     0.222340000000    -0.00825364 
C234     C      0.160270000000     0.964680000000     0.259220000000    -0.0159013  
C235     C      0.134790000000     0.527660000000     0.241700000000    -0.0131994  
C236     C      0.134540000000     0.980720000000     0.280490000000     0.0136702  
C237     C      0.113560000000     0.955580000000     0.293980000000     0.0625772  
C238     C      0.389950000000     0.988710000000     0.287460000000    -0.0064395  
C239     C      0.388080000000     0.531300000000     0.244610000000    -0.016857   
C240     C      0.409090000000     0.011780000000     0.309000000000    -0.0199872  
C241     C      0.406090000000     0.553840000000     0.267020000000     0.0144554  
C242     C      0.423620000000     0.578770000000     0.249110000000     0.0548909  
C243     C      0.993770000000     0.881840000000     0.288450000000    -0.0123517  
C244     C      0.037900000000     0.881190000000     0.246620000000    -0.0187878  
C245     C      0.480030000000     0.912020000000     0.273320000000    -0.00840578 
C246     C      0.523000000000     0.911010000000     0.230860000000     0.0130052  
C247     C      0.048740000000     0.929590000000     0.215000000000     0.0564429  
C248     C      0.493750000000     0.653310000000     0.295120000000    -0.0133882  
C249     C      0.038090000000     0.653850000000     0.253790000000    -0.0157981  
C250     C      0.514620000000     0.631000000000     0.316290000000    -0.0126513  
C251     C      0.059120000000     0.634250000000     0.276280000000     0.0134897  
C252     C      0.083920000000     0.616500000000     0.258310000000     0.0566713  
C253     C      0.532870000000     0.582510000000     0.789250000000     0.404425   
C254     C      0.010840000000     0.960510000000     0.762260000000     0.404281   
C255     C      0.459130000000     0.530840000000     0.784350000000     0.404225   
C256     C      0.084450000000     0.011160000000     0.766880000000     0.405952   
C257     C      0.013430000000     0.704270000000     0.771560000000     0.404181   
C258     C      0.012980000000     0.831160000000     0.765710000000     0.398353   
C259     C      0.995350000000     0.765000000000     0.707240000000     0.404725   
C260     C      0.029920000000     0.770270000000     0.829640000000     0.403772   
C261     C      0.338390000000     0.504160000000     0.762050000000     0.402369   
C262     C      0.211690000000     0.492330000000     0.747420000000     0.405495   
C263     C      0.284470000000     0.483620000000     0.694170000000     0.40591    
C264     C      0.266000000000     0.512710000000     0.816760000000     0.404191   
C265     C      0.277290000000     0.505540000000     0.570620000000     0.401856   
C266     C      0.278840000000     0.005510000000     0.943010000000     0.401633   
C267     C      0.269420000000     0.569040000000     0.506010000000     0.403866   
C268     C      0.286680000000     0.943730000000     0.007350000000     0.403975   
C269     C      0.989000000000     0.764170000000     0.578600000000     0.402167   
C270     C      0.531960000000     0.771900000000     0.958360000000     0.399212   
C271     C      0.069510000000     0.781330000000     0.538630000000     0.40465    
C272     C      0.450760000000     0.754760000000     0.998090000000     0.408795   
C273     C      0.193930000000     0.764850000000     0.522130000000     0.399381   
C274     C      0.320900000000     0.754280000000     0.506110000000     0.400446   
C275     C      0.250850000000     0.697250000000     0.505260000000     0.404104   
C276     C      0.262890000000     0.822010000000     0.522350000000     0.401764   
C277     C      0.400820000000     0.769450000000     0.968990000000    -0.0107527  
C278     C      0.403380000000     0.719190000000     0.000810000000    -0.0241081  
C279     C      0.369800000000     0.779310000000     0.486140000000    -0.0132908  
C280     C      0.373630000000     0.729320000000     0.520490000000     0.0112346  
C281     C      0.355600000000     0.700430000000     0.029940000000     0.0533161  
C282     C      0.142060000000     0.787800000000     0.004530000000    -0.0204653  
C283     C      0.144600000000     0.749190000000     0.051250000000    -0.0179191  
C284     C      0.119000000000     0.808910000000     0.524100000000    -0.0132223  
C285     C      0.120240000000     0.770050000000     0.569260000000     0.0141249  
C286     C      0.100660000000     0.750900000000     0.591700000000     0.0541789  
C287     C      0.245580000000     0.874760000000     0.004020000000    -0.0185737  
C288     C      0.286140000000     0.870080000000     0.548490000000    -0.0180655  
C289     C      0.269490000000     0.893470000000     0.984050000000    -0.000211395
C290     C      0.309180000000     0.892540000000     0.529580000000     0.0097777  
C291     C      0.327840000000     0.912270000000     0.552280000000     0.0537219  
C292     C      0.228270000000     0.645410000000     0.522130000000    -0.00864614 
C293     C      0.262170000000     0.649860000000     0.972510000000    -0.0119088  
C294     C      0.246960000000     0.615670000000     0.532320000000    -0.0126252  
C295     C      0.283690000000     0.622510000000     0.984260000000     0.0120555  
C296     C      0.297490000000     0.606120000000     0.956100000000     0.0562159  
C297     C      0.302920000000     0.519410000000     0.890260000000    -0.0114261  
C298     C      0.254410000000     0.983750000000     0.893870000000    -0.00996066 
C299     C      0.285510000000     0.539870000000     0.864850000000    -0.0119759  
C300     C      0.237250000000     0.003900000000     0.868630000000     0.00729643 
C301     C      0.214140000000     0.984010000000     0.850660000000     0.0571058  
C302     C      0.303200000000     0.517260000000     0.622900000000    -0.0109177  
C303     C      0.250760000000     0.986980000000     0.620530000000    -0.0120036  
C304     C      0.316630000000     0.492270000000     0.646000000000    -0.00945557 
C305     C      0.265140000000     0.961270000000     0.642660000000     0.0100229  
C306     C      0.239310000000     0.945530000000     0.661260000000     0.052931   
C307     C      0.042540000000     0.804550000000     0.910040000000    -0.0114448  
C308     C      0.061090000000     0.748240000000     0.911710000000    -0.0163236  
C309     C      0.523940000000     0.798500000000     0.879260000000    -0.0102154  
C310     C      0.546000000000     0.742090000000     0.878400000000     0.00938367 
C311     C      0.067380000000     0.721100000000     0.859520000000     0.0520929  
C312     C      0.463230000000     0.788500000000     0.626830000000    -0.01015    
C313     C      0.477970000000     0.731120000000     0.626560000000    -0.014406   
C314     C      0.980260000000     0.793000000000     0.659220000000    -0.0133463  
C315     C      0.997840000000     0.734920000000     0.657210000000     0.0101183  
C316     C      0.495800000000     0.705060000000     0.675870000000     0.0547072  
C317     C      0.161110000000     0.511230000000     0.722340000000    -0.00826603 
C318     C      0.160270000000     0.964680000000     0.759220000000    -0.0158999  
C319     C      0.134790000000     0.527660000000     0.741700000000    -0.0132024  
C320     C      0.134540000000     0.980720000000     0.780490000000     0.0136311  
C321     C      0.113560000000     0.955580000000     0.793980000000     0.0626772  
C322     C      0.389950000000     0.988710000000     0.787460000000    -0.00645555 
C323     C      0.388080000000     0.531300000000     0.744610000000    -0.0168634  
C324     C      0.409090000000     0.011780000000     0.809000000000    -0.0199865  
C325     C      0.406090000000     0.553840000000     0.767020000000     0.0144464  
C326     C      0.423620000000     0.578770000000     0.749110000000     0.0549253  
C327     C      0.993770000000     0.881840000000     0.788450000000    -0.0123741  
C328     C      0.037900000000     0.881190000000     0.746620000000    -0.0187903  
C329     C      0.480030000000     0.912020000000     0.773320000000    -0.00840105 
C330     C      0.523000000000     0.911010000000     0.730860000000     0.0129924  
C331     C      0.048740000000     0.929590000000     0.715000000000     0.0564875  
C332     C      0.493750000000     0.653310000000     0.795130000000    -0.0134633  
C333     C      0.038090000000     0.653850000000     0.753790000000    -0.0158163  
C334     C      0.514620000000     0.631000000000     0.816290000000    -0.0126392  
C335     C      0.059120000000     0.634250000000     0.776280000000     0.0134943  
C336     C      0.083920000000     0.616500000000     0.758310000000     0.056712   
C337     C      0.032870000000     0.082510000000     0.289250000000     0.404054   
C338     C      0.510840000000     0.460510000000     0.262260000000     0.404664   
C339     C      0.959130000000     0.030840000000     0.284350000000     0.403607   
C340     C      0.584450000000     0.511160000000     0.266870000000     0.406391   
C341     C      0.513430000000     0.204270000000     0.271560000000     0.404373   
C342     C      0.512980000000     0.331160000000     0.265710000000     0.398383   
C343     C      0.495350000000     0.265000000000     0.207240000000     0.404625   
C344     C      0.529920000000     0.270270000000     0.329640000000     0.403885   
C345     C      0.838390000000     0.004160000000     0.262050000000     0.399073   
C346     C      0.711680000000     0.992330000000     0.247420000000     0.40864    
C347     C      0.784470000000     0.983620000000     0.194170000000     0.409639   
C348     C      0.766000000000     0.012710000000     0.316760000000     0.400526   
C349     C      0.777290000000     0.005540000000     0.070620000000     0.401301   
C350     C      0.778840000000     0.505520000000     0.443010000000     0.402339   
C351     C      0.769420000000     0.069040000000     0.006010000000     0.403146   
C352     C      0.786690000000     0.443730000000     0.507350000000     0.404379   
C353     C      0.489000000000     0.264170000000     0.078600000000     0.401862   
C354     C      0.031960000000     0.271900000000     0.458360000000     0.399654   
C355     C      0.569510000000     0.281330000000     0.038630000000     0.404274   
C356     C      0.950760000000     0.254760000000     0.498090000000     0.400352   
C357     C      0.693930000000     0.264850000000     0.022130000000     0.394552   
C358     C      0.820900000000     0.254280000000     0.006110000000     0.396238   
C359     C      0.750850000000     0.197250000000     0.005260000000     0.399595   
C360     C      0.762890000000     0.322010000000     0.022350000000     0.396963   
C361     C      0.900820000000     0.269450000000     0.468990000000    -0.00934893 
C362     C      0.903380000000     0.219190000000     0.500810000000    -0.0169671  
C363     C      0.869800000000     0.279310000000     0.986140000000    -0.00599138 
C364     C      0.873630000000     0.229320000000     0.020480000000     0.0127158  
C365     C      0.855600000000     0.200430000000     0.529940000000     0.0545381  
C366     C      0.642060000000     0.287800000000     0.504530000000    -0.0110678  
C367     C      0.644600000000     0.249190000000     0.551250000000    -0.0174769  
C368     C      0.619000000000     0.308910000000     0.024100000000    -0.0106302  
C369     C      0.620240000000     0.270050000000     0.069260000000     0.0143304  
C370     C      0.600660000000     0.250900000000     0.091700000000     0.0540574  
C371     C      0.745580000000     0.374760000000     0.504020000000    -0.00937791 
C372     C      0.786140000000     0.370080000000     0.048490000000    -0.0187589  
C373     C      0.769480000000     0.393470000000     0.484050000000    -0.00819365 
C374     C      0.809180000000     0.392540000000     0.029580000000     0.0101824  
C375     C      0.827840000000     0.412270000000     0.052280000000     0.0530641  
C376     C      0.728270000000     0.145410000000     0.022130000000    -0.00890923 
C377     C      0.762170000000     0.149860000000     0.472510000000    -0.0141459  
C378     C      0.746960000000     0.115670000000     0.032330000000    -0.013011   
C379     C      0.783690000000     0.122510000000     0.484260000000     0.0100535  
C380     C      0.797490000000     0.106120000000     0.456100000000     0.055347   
C381     C      0.802920000000     0.019410000000     0.390260000000    -0.011125   
C382     C      0.754410000000     0.483750000000     0.393870000000    -0.0155327  
C383     C      0.785510000000     0.039870000000     0.364850000000    -0.0124805  
C384     C      0.737250000000     0.503900000000     0.368640000000     0.0133064  
C385     C      0.714140000000     0.484010000000     0.350660000000     0.0530779  
C386     C      0.803200000000     0.017260000000     0.122900000000    -0.0145345  
C387     C      0.750770000000     0.486980000000     0.120520000000    -0.0170451  
C388     C      0.816630000000     0.992270000000     0.146000000000    -0.00320572 
C389     C      0.765140000000     0.461270000000     0.142660000000     0.010792   
C390     C      0.739310000000     0.445530000000     0.161260000000     0.0522446  
C391     C      0.542540000000     0.304550000000     0.410040000000    -0.0113989  
C392     C      0.561090000000     0.248240000000     0.411700000000    -0.0162711  
C393     C      0.023940000000     0.298500000000     0.379260000000    -0.0103906  
C394     C      0.046000000000     0.242090000000     0.378400000000     0.00940568 
C395     C      0.567380000000     0.221110000000     0.359520000000     0.0518947  
C396     C      0.963230000000     0.288500000000     0.126830000000    -0.0101557  
C397     C      0.977970000000     0.231120000000     0.126560000000    -0.0143855  
C398     C      0.480260000000     0.293000000000     0.159220000000    -0.0134294  
C399     C      0.497840000000     0.234920000000     0.157210000000     0.0100426  
C400     C      0.995800000000     0.205050000000     0.175870000000     0.0547091  
C401     C      0.661110000000     0.011230000000     0.222340000000    -0.0137906  
C402     C      0.660270000000     0.464680000000     0.259220000000    -0.0155905  
C403     C      0.634790000000     0.027660000000     0.241700000000    -0.012      
C404     C      0.634540000000     0.480720000000     0.280490000000     0.0116967  
C405     C      0.613560000000     0.455580000000     0.293980000000     0.0621757  
C406     C      0.889950000000     0.488710000000     0.287460000000    -0.0120433  
C407     C      0.888090000000     0.031310000000     0.244610000000    -0.0168101  
C408     C      0.909090000000     0.511780000000     0.309000000000    -0.0135415  
C409     C      0.906090000000     0.053840000000     0.267020000000     0.0141646  
C410     C      0.923620000000     0.078770000000     0.249110000000     0.0548933  
C411     C      0.493770000000     0.381840000000     0.288450000000    -0.0125031  
C412     C      0.537900000000     0.381190000000     0.246620000000    -0.0187951  
C413     C      0.980030000000     0.412020000000     0.273320000000    -0.0083342  
C414     C      0.023000000000     0.411010000000     0.230860000000     0.0130439  
C415     C      0.548740000000     0.429590000000     0.215000000000     0.0560522  
C416     C      0.993750000000     0.153310000000     0.295120000000    -0.0132061  
C417     C      0.538090000000     0.153850000000     0.253790000000    -0.0157321  
C418     C      0.014620000000     0.131000000000     0.316290000000    -0.0128503  
C419     C      0.559120000000     0.134250000000     0.276280000000     0.0134723  
C420     C      0.583920000000     0.116500000000     0.258310000000     0.0566041  
C421     C      0.032870000000     0.082510000000     0.789250000000     0.404285   
C422     C      0.510840000000     0.460510000000     0.762260000000     0.404641   
C423     C      0.959130000000     0.030840000000     0.784350000000     0.403597   
C424     C      0.584450000000     0.511160000000     0.766880000000     0.406381   
C425     C      0.513430000000     0.204270000000     0.771560000000     0.4043     
C426     C      0.512980000000     0.331160000000     0.765710000000     0.398453   
C427     C      0.495350000000     0.265000000000     0.707240000000     0.404614   
C428     C      0.529920000000     0.270270000000     0.829640000000     0.403881   
C429     C      0.838390000000     0.004160000000     0.762050000000     0.399153   
C430     C      0.711680000000     0.992330000000     0.747420000000     0.408621   
C431     C      0.784470000000     0.983620000000     0.694170000000     0.409617   
C432     C      0.766000000000     0.012710000000     0.816760000000     0.400539   
C433     C      0.777290000000     0.005540000000     0.570620000000     0.401499   
C434     C      0.778840000000     0.505520000000     0.943010000000     0.401901   
C435     C      0.769420000000     0.069040000000     0.506010000000     0.403731   
C436     C      0.786690000000     0.443730000000     0.007350000000     0.404096   
C437     C      0.489000000000     0.264170000000     0.578600000000     0.402085   
C438     C      0.031960000000     0.271900000000     0.958360000000     0.399207   
C439     C      0.569510000000     0.281330000000     0.538630000000     0.404561   
C440     C      0.950760000000     0.254760000000     0.998090000000     0.408815   
C441     C      0.693930000000     0.264850000000     0.522130000000     0.399377   
C442     C      0.820900000000     0.254280000000     0.506110000000     0.400522   
C443     C      0.750850000000     0.197250000000     0.505260000000     0.404108   
C444     C      0.762890000000     0.322010000000     0.522350000000     0.401761   
C445     C      0.900820000000     0.269450000000     0.968990000000    -0.0107536  
C446     C      0.903380000000     0.219190000000     0.000810000000    -0.0241092  
C447     C      0.869800000000     0.279310000000     0.486140000000    -0.0132776  
C448     C      0.873630000000     0.229320000000     0.520490000000     0.0112304  
C449     C      0.855600000000     0.200430000000     0.029940000000     0.0532993  
C450     C      0.642060000000     0.287800000000     0.004530000000    -0.0205293  
C451     C      0.644600000000     0.249190000000     0.051250000000    -0.0179131  
C452     C      0.619000000000     0.308910000000     0.524100000000    -0.0131957  
C453     C      0.620240000000     0.270050000000     0.569260000000     0.0141291  
C454     C      0.600660000000     0.250900000000     0.591700000000     0.0541566  
C455     C      0.745580000000     0.374760000000     0.004020000000    -0.0185752  
C456     C      0.786140000000     0.370080000000     0.548490000000    -0.0180588  
C457     C      0.769480000000     0.393470000000     0.984050000000    -0.000207552
C458     C      0.809180000000     0.392540000000     0.529580000000     0.00978149 
C459     C      0.827840000000     0.412270000000     0.552280000000     0.0533985  
C460     C      0.728270000000     0.145410000000     0.522130000000    -0.00863806 
C461     C      0.762170000000     0.149860000000     0.972510000000    -0.0119087  
C462     C      0.746960000000     0.115670000000     0.532320000000    -0.0126277  
C463     C      0.783690000000     0.122510000000     0.984260000000     0.0120583  
C464     C      0.797490000000     0.106120000000     0.956100000000     0.0561742  
C465     C      0.802920000000     0.019410000000     0.890260000000    -0.0111557  
C466     C      0.754410000000     0.483750000000     0.893870000000    -0.015579   
C467     C      0.785510000000     0.039870000000     0.864850000000    -0.0124671  
C468     C      0.737250000000     0.503900000000     0.868630000000     0.0133216  
C469     C      0.714140000000     0.484010000000     0.850660000000     0.0532618  
C470     C      0.803200000000     0.017260000000     0.622900000000    -0.0145358  
C471     C      0.750770000000     0.486980000000     0.620530000000    -0.0170885  
C472     C      0.816630000000     0.992270000000     0.646000000000    -0.00322734 
C473     C      0.765140000000     0.461270000000     0.642660000000     0.010804   
C474     C      0.739310000000     0.445530000000     0.661260000000     0.0522658  
C475     C      0.542540000000     0.304550000000     0.910040000000    -0.0114405  
C476     C      0.561090000000     0.248240000000     0.911710000000    -0.0163028  
C477     C      0.023940000000     0.298500000000     0.879260000000    -0.0103697  
C478     C      0.046000000000     0.242090000000     0.878400000000     0.0094029  
C479     C      0.567380000000     0.221110000000     0.859520000000     0.0520695  
C480     C      0.963230000000     0.288500000000     0.626830000000    -0.0101601  
C481     C      0.977970000000     0.231120000000     0.626560000000    -0.0144035  
C482     C      0.480260000000     0.293000000000     0.659220000000    -0.0134386  
C483     C      0.497840000000     0.234920000000     0.657210000000     0.0100493  
C484     C      0.995800000000     0.205050000000     0.675870000000     0.0547354  
C485     C      0.661110000000     0.011230000000     0.722340000000    -0.0137851  
C486     C      0.660270000000     0.464680000000     0.759220000000    -0.0155901  
C487     C      0.634790000000     0.027660000000     0.741700000000    -0.0120069  
C488     C      0.634540000000     0.480720000000     0.780490000000     0.0116652  
C489     C      0.613560000000     0.455580000000     0.793980000000     0.0622784  
C490     C      0.889950000000     0.488710000000     0.787460000000    -0.0120336  
C491     C      0.888090000000     0.031310000000     0.744610000000    -0.016817   
C492     C      0.909090000000     0.511780000000     0.809000000000    -0.0135707  
C493     C      0.906090000000     0.053840000000     0.767020000000     0.0141569  
C494     C      0.923620000000     0.078770000000     0.749110000000     0.0549274  
C495     C      0.493770000000     0.381840000000     0.788450000000    -0.0125249  
C496     C      0.537900000000     0.381190000000     0.746620000000    -0.0187976  
C497     C      0.980030000000     0.412020000000     0.773320000000    -0.00832957 
C498     C      0.023000000000     0.411010000000     0.730860000000     0.013031   
C499     C      0.548740000000     0.429590000000     0.715000000000     0.0560982  
C500     C      0.993750000000     0.153310000000     0.795130000000    -0.0132819  
C501     C      0.538090000000     0.153850000000     0.753790000000    -0.0157503  
C502     C      0.014620000000     0.131000000000     0.816290000000    -0.0128372  
C503     C      0.559120000000     0.134250000000     0.776280000000     0.0134768  
C504     C      0.583920000000     0.116500000000     0.758310000000     0.056645   
C505     C      0.032870000000     0.582510000000     0.289250000000     0.404195   
C506     C      0.510840000000     0.960510000000     0.262260000000     0.404314   
C507     C      0.959130000000     0.530840000000     0.284350000000     0.404225   
C508     C      0.584450000000     0.011160000000     0.266870000000     0.405965   
C509     C      0.513430000000     0.704270000000     0.271560000000     0.404365   
C510     C      0.512980000000     0.831160000000     0.265710000000     0.398389   
C511     C      0.495350000000     0.765000000000     0.207240000000     0.40462    
C512     C      0.529920000000     0.770270000000     0.329640000000     0.403883   
C513     C      0.838390000000     0.504160000000     0.262050000000     0.402299   
C514     C      0.711680000000     0.492330000000     0.247420000000     0.405416   
C515     C      0.784470000000     0.483620000000     0.194170000000     0.40592    
C516     C      0.766000000000     0.512710000000     0.316760000000     0.404195   
C517     C      0.777290000000     0.505540000000     0.070620000000     0.40166    
C518     C      0.778840000000     0.005510000000     0.443010000000     0.402067   
C519     C      0.769420000000     0.569040000000     0.006010000000     0.403277   
C520     C      0.786690000000     0.943730000000     0.507350000000     0.404021   
C521     C      0.489000000000     0.764170000000     0.078600000000     0.401849   
C522     C      0.031960000000     0.771900000000     0.458360000000     0.399641   
C523     C      0.569510000000     0.781330000000     0.038630000000     0.404263   
C524     C      0.950760000000     0.754760000000     0.498090000000     0.400338   
C525     C      0.693930000000     0.764850000000     0.022130000000     0.394569   
C526     C      0.820900000000     0.754280000000     0.006110000000     0.396174   
C527     C      0.750850000000     0.697250000000     0.005260000000     0.3996     
C528     C      0.762890000000     0.822010000000     0.022350000000     0.396985   
C529     C      0.900820000000     0.769450000000     0.468990000000    -0.00935414 
C530     C      0.903380000000     0.719190000000     0.500810000000    -0.0169833  
C531     C      0.869800000000     0.779310000000     0.986140000000    -0.00602785 
C532     C      0.873630000000     0.729320000000     0.020480000000     0.0127169  
C533     C      0.855600000000     0.700430000000     0.529940000000     0.0545555  
C534     C      0.642060000000     0.787800000000     0.504530000000    -0.011061   
C535     C      0.644600000000     0.749190000000     0.551250000000    -0.0174849  
C536     C      0.619000000000     0.808910000000     0.024100000000    -0.0106613  
C537     C      0.620240000000     0.770050000000     0.069260000000     0.014324   
C538     C      0.600660000000     0.750900000000     0.091700000000     0.0540866  
C539     C      0.745580000000     0.874760000000     0.504020000000    -0.00940028 
C540     C      0.786140000000     0.870080000000     0.048490000000    -0.0187567  
C541     C      0.769480000000     0.893470000000     0.484050000000    -0.00819869 
C542     C      0.809180000000     0.892540000000     0.029580000000     0.010164   
C543     C      0.827840000000     0.912270000000     0.052280000000     0.0533977  
C544     C      0.728270000000     0.645410000000     0.022130000000    -0.00891714 
C545     C      0.762170000000     0.649860000000     0.472510000000    -0.014142   
C546     C      0.746960000000     0.615670000000     0.032330000000    -0.0130088  
C547     C      0.783690000000     0.622510000000     0.484260000000     0.0100517  
C548     C      0.797490000000     0.606120000000     0.456100000000     0.0553915  
C549     C      0.802920000000     0.519410000000     0.390260000000    -0.0113979  
C550     C      0.754410000000     0.983750000000     0.393870000000    -0.00987901 
C551     C      0.785510000000     0.539870000000     0.364850000000    -0.0119865  
C552     C      0.737250000000     0.003900000000     0.368640000000     0.00724563 
C553     C      0.714140000000     0.984010000000     0.350660000000     0.0569434  
C554     C      0.803200000000     0.517260000000     0.122900000000    -0.0108678  
C555     C      0.750770000000     0.986980000000     0.120520000000    -0.0118364  
C556     C      0.816630000000     0.492270000000     0.146000000000    -0.00946828 
C557     C      0.765140000000     0.961270000000     0.142660000000     0.00996766 
C558     C      0.739310000000     0.945530000000     0.161260000000     0.0529215  
C559     C      0.542540000000     0.804550000000     0.410040000000    -0.0114323  
C560     C      0.561090000000     0.748240000000     0.411700000000    -0.0162836  
C561     C      0.023940000000     0.798500000000     0.379260000000    -0.0103509  
C562     C      0.046000000000     0.742090000000     0.378400000000     0.0094052  
C563     C      0.567380000000     0.721100000000     0.359520000000     0.0519292  
C564     C      0.963230000000     0.788500000000     0.126830000000    -0.0101647  
C565     C      0.977970000000     0.731120000000     0.126560000000    -0.0143974  
C566     C      0.480260000000     0.793000000000     0.159220000000    -0.0134361  
C567     C      0.497840000000     0.734920000000     0.157210000000     0.0100417  
C568     C      0.995800000000     0.705060000000     0.175870000000     0.0547016  
C569     C      0.661110000000     0.511230000000     0.222340000000    -0.00824122 
C570     C      0.660270000000     0.964680000000     0.259220000000    -0.0158892  
C571     C      0.634790000000     0.527660000000     0.241700000000    -0.013203   
C572     C      0.634540000000     0.980720000000     0.280490000000     0.0136672  
C573     C      0.613560000000     0.955580000000     0.293980000000     0.0625774  
C574     C      0.889950000000     0.988710000000     0.287460000000    -0.00645233 
C575     C      0.888090000000     0.531300000000     0.244610000000    -0.0168904  
C576     C      0.909090000000     0.011780000000     0.309000000000    -0.0199564  
C577     C      0.906090000000     0.553840000000     0.267020000000     0.0144713  
C578     C      0.923620000000     0.578770000000     0.249110000000     0.0548939  
C579     C      0.493770000000     0.881840000000     0.288450000000    -0.012506   
C580     C      0.537900000000     0.881190000000     0.246620000000    -0.0187808  
C581     C      0.980030000000     0.912020000000     0.273320000000    -0.00835143 
C582     C      0.023000000000     0.911010000000     0.230860000000     0.0130029  
C583     C      0.548740000000     0.929590000000     0.215000000000     0.0564492  
C584     C      0.993750000000     0.653310000000     0.295120000000    -0.0132091  
C585     C      0.538090000000     0.653850000000     0.253790000000    -0.0157486  
C586     C      0.014620000000     0.631000000000     0.316290000000    -0.0128597  
C587     C      0.559120000000     0.634250000000     0.276280000000     0.0134789  
C588     C      0.583920000000     0.616500000000     0.258310000000     0.0566648  
C589     C      0.032870000000     0.582510000000     0.789250000000     0.404426   
C590     C      0.510840000000     0.960510000000     0.762260000000     0.404293   
C591     C      0.959130000000     0.530840000000     0.784350000000     0.404213   
C592     C      0.584450000000     0.011160000000     0.766880000000     0.405955   
C593     C      0.513430000000     0.704270000000     0.771560000000     0.404292   
C594     C      0.512980000000     0.831160000000     0.765710000000     0.398458   
C595     C      0.495350000000     0.765000000000     0.707240000000     0.40461    
C596     C      0.529920000000     0.770270000000     0.829640000000     0.403879   
C597     C      0.838390000000     0.504160000000     0.762050000000     0.402367   
C598     C      0.711680000000     0.492330000000     0.747420000000     0.40541    
C599     C      0.784470000000     0.483620000000     0.694170000000     0.40591    
C600     C      0.766000000000     0.512710000000     0.816760000000     0.404191   
C601     C      0.777290000000     0.505540000000     0.570620000000     0.401858   
C602     C      0.778840000000     0.005510000000     0.943010000000     0.401629   
C603     C      0.769420000000     0.569040000000     0.506010000000     0.403862   
C604     C      0.786690000000     0.943730000000     0.007350000000     0.403739   
C605     C      0.489000000000     0.764170000000     0.578600000000     0.402071   
C606     C      0.031960000000     0.771900000000     0.958360000000     0.399195   
C607     C      0.569510000000     0.781330000000     0.538630000000     0.404548   
C608     C      0.950760000000     0.754760000000     0.998090000000     0.408775   
C609     C      0.693930000000     0.764850000000     0.522130000000     0.399379   
C610     C      0.820900000000     0.754280000000     0.506110000000     0.400446   
C611     C      0.750850000000     0.697250000000     0.505260000000     0.404104   
C612     C      0.762890000000     0.822010000000     0.522350000000     0.401765   
C613     C      0.900820000000     0.769450000000     0.968990000000    -0.0107544  
C614     C      0.903380000000     0.719190000000     0.000810000000    -0.0241092  
C615     C      0.869800000000     0.779310000000     0.486140000000    -0.0132906  
C616     C      0.873630000000     0.729320000000     0.520490000000     0.0112349  
C617     C      0.855600000000     0.700430000000     0.029940000000     0.0533186  
C618     C      0.642060000000     0.787800000000     0.004530000000    -0.0204919  
C619     C      0.644600000000     0.749190000000     0.051250000000    -0.0179197  
C620     C      0.619000000000     0.808910000000     0.524100000000    -0.0132184  
C621     C      0.620240000000     0.770050000000     0.569260000000     0.0141233  
C622     C      0.600660000000     0.750900000000     0.591700000000     0.0541856  
C623     C      0.745580000000     0.874760000000     0.004020000000    -0.0185546  
C624     C      0.786140000000     0.870080000000     0.548490000000    -0.0180596  
C625     C      0.769480000000     0.893470000000     0.984050000000    -0.000253218
C626     C      0.809180000000     0.892540000000     0.529580000000     0.00976467 
C627     C      0.827840000000     0.912270000000     0.552280000000     0.0537305  
C628     C      0.728270000000     0.645410000000     0.522130000000    -0.00864653 
C629     C      0.762170000000     0.649860000000     0.972510000000    -0.0119091  
C630     C      0.746960000000     0.615670000000     0.532320000000    -0.0126256  
C631     C      0.783690000000     0.622510000000     0.984260000000     0.0120546  
C632     C      0.797490000000     0.606120000000     0.956100000000     0.0562177  
C633     C      0.802920000000     0.519410000000     0.890260000000    -0.011427   
C634     C      0.754410000000     0.983750000000     0.893870000000    -0.00996144 
C635     C      0.785510000000     0.539870000000     0.864850000000    -0.0119758  
C636     C      0.737250000000     0.003900000000     0.868630000000     0.00729651 
C637     C      0.714140000000     0.984010000000     0.850660000000     0.0571045  
C638     C      0.803200000000     0.517260000000     0.622900000000    -0.0108774  
C639     C      0.750770000000     0.986980000000     0.620530000000    -0.0118899  
C640     C      0.816630000000     0.492270000000     0.646000000000    -0.00947398 
C641     C      0.765140000000     0.961270000000     0.642660000000     0.00997978 
C642     C      0.739310000000     0.945530000000     0.661260000000     0.0529412  
C643     C      0.542540000000     0.804550000000     0.910040000000    -0.0114735  
C644     C      0.561090000000     0.748240000000     0.911710000000    -0.0163151  
C645     C      0.023940000000     0.798500000000     0.879260000000    -0.0103301  
C646     C      0.046000000000     0.742090000000     0.878400000000     0.00940243 
C647     C      0.567380000000     0.721100000000     0.859520000000     0.0521037  
C648     C      0.963230000000     0.788500000000     0.626830000000    -0.0101692  
C649     C      0.977970000000     0.731120000000     0.626560000000    -0.0144154  
C650     C      0.480260000000     0.793000000000     0.659220000000    -0.0134452  
C651     C      0.497840000000     0.734920000000     0.657210000000     0.0100484  
C652     C      0.995800000000     0.705060000000     0.675870000000     0.054728   
C653     C      0.661110000000     0.511230000000     0.722340000000    -0.00825361 
C654     C      0.660270000000     0.964680000000     0.759220000000    -0.0158878  
C655     C      0.634790000000     0.527660000000     0.741700000000    -0.0132059  
C656     C      0.634540000000     0.980720000000     0.780490000000     0.0136281  
C657     C      0.613560000000     0.955580000000     0.793980000000     0.0626774  
C658     C      0.889950000000     0.988710000000     0.787460000000    -0.00646841 
C659     C      0.888090000000     0.531300000000     0.744610000000    -0.0168967  
C660     C      0.909090000000     0.011780000000     0.809000000000    -0.0199556  
C661     C      0.906090000000     0.553840000000     0.767020000000     0.0144624  
C662     C      0.923620000000     0.578770000000     0.749110000000     0.0549283  
C663     C      0.493770000000     0.881840000000     0.788450000000    -0.0125276  
C664     C      0.537900000000     0.881190000000     0.746620000000    -0.0187834  
C665     C      0.980030000000     0.912020000000     0.773320000000    -0.00834676 
C666     C      0.023000000000     0.911010000000     0.730860000000     0.0129901  
C667     C      0.548740000000     0.929590000000     0.715000000000     0.0564938  
C668     C      0.993750000000     0.653310000000     0.795130000000    -0.013285   
C669     C      0.538090000000     0.653850000000     0.753790000000    -0.0157668  
C670     C      0.014620000000     0.631000000000     0.816290000000    -0.0128466  
C671     C      0.559120000000     0.634250000000     0.776280000000     0.0134834  
C672     C      0.583920000000     0.616500000000     0.758310000000     0.0567055  
Cu1      Cu     0.519580000000     0.528510000000     0.247060000000     0.862433   
Cu2      Cu     0.024120000000     0.014420000000     0.304520000000     0.84615    
Cu3      Cu     0.484170000000     0.268190000000     0.276770000000     0.843707   
Cu4      Cu     0.041460000000     0.267220000000     0.260060000000     0.858693   
Cu5      Cu     0.276430000000     0.469690000000     0.262870000000     0.851508   
Cu6      Cu     0.273660000000     0.026720000000     0.247860000000     0.852644   
Cu7      Cu     0.307670000000     0.010610000000     0.507050000000     0.841193   
Cu8      Cu     0.248720000000     0.502160000000     0.006590000000     0.855235   
Cu9      Cu     0.016710000000     0.239290000000     0.519180000000     0.849075   
Cu10     Cu     0.503700000000     0.296740000000     0.017570000000     0.842583   
Cu11     Cu     0.254120000000     0.264150000000     0.485020000000     0.855215   
Cu12     Cu     0.260670000000     0.254920000000     0.043140000000     0.836503   
Cu13     Cu     0.519580000000     0.528510000000     0.747060000000     0.862389   
Cu14     Cu     0.024120000000     0.014420000000     0.804520000000     0.846548   
Cu15     Cu     0.484170000000     0.268190000000     0.776770000000     0.843726   
Cu16     Cu     0.041460000000     0.267220000000     0.760060000000     0.858661   
Cu17     Cu     0.276430000000     0.469690000000     0.762870000000     0.851523   
Cu18     Cu     0.273660000000     0.026720000000     0.747860000000     0.852628   
Cu19     Cu     0.307670000000     0.010610000000     0.007050000000     0.837976   
Cu20     Cu     0.248720000000     0.502160000000     0.506600000000     0.858483   
Cu21     Cu     0.016710000000     0.239290000000     0.019180000000     0.846397   
Cu22     Cu     0.503700000000     0.296740000000     0.517570000000     0.845321   
Cu23     Cu     0.254120000000     0.264150000000     0.985020000000     0.857427   
Cu24     Cu     0.260670000000     0.254920000000     0.543140000000     0.840375   
Cu25     Cu     0.519580000000     0.028510000000     0.247060000000     0.86022    
Cu26     Cu     0.024120000000     0.514420000000     0.304520000000     0.848849   
Cu27     Cu     0.484170000000     0.768190000000     0.276770000000     0.843705   
Cu28     Cu     0.041460000000     0.767220000000     0.260060000000     0.858676   
Cu29     Cu     0.276430000000     0.969690000000     0.262870000000     0.853844   
Cu30     Cu     0.273660000000     0.526720000000     0.247860000000     0.854909   
Cu31     Cu     0.307670000000     0.510610000000     0.507050000000     0.843506   
Cu32     Cu     0.248720000000     0.002160000000     0.006590000000     0.852621   
Cu33     Cu     0.016710000000     0.739290000000     0.519180000000     0.849101   
Cu34     Cu     0.503700000000     0.796740000000     0.017570000000     0.842779   
Cu35     Cu     0.254120000000     0.764150000000     0.485020000000     0.855211   
Cu36     Cu     0.260670000000     0.754920000000     0.043140000000     0.836491   
Cu37     Cu     0.519580000000     0.028510000000     0.747060000000     0.860182   
Cu38     Cu     0.024120000000     0.514420000000     0.804520000000     0.849236   
Cu39     Cu     0.484170000000     0.768190000000     0.776770000000     0.843724   
Cu40     Cu     0.041460000000     0.767220000000     0.760060000000     0.858644   
Cu41     Cu     0.276430000000     0.969690000000     0.762870000000     0.85385    
Cu42     Cu     0.273660000000     0.526720000000     0.747860000000     0.854884   
Cu43     Cu     0.307670000000     0.510610000000     0.007050000000     0.840286   
Cu44     Cu     0.248720000000     0.002160000000     0.506600000000     0.855865   
Cu45     Cu     0.016710000000     0.739290000000     0.019180000000     0.846428   
Cu46     Cu     0.503700000000     0.796740000000     0.517570000000     0.845506   
Cu47     Cu     0.254120000000     0.764150000000     0.985020000000     0.857417   
Cu48     Cu     0.260670000000     0.754920000000     0.543140000000     0.840351   
Cu49     Cu     0.019580000000     0.528510000000     0.247060000000     0.862329   
Cu50     Cu     0.524120000000     0.014420000000     0.304520000000     0.846221   
Cu51     Cu     0.984170000000     0.268190000000     0.276770000000     0.843773   
Cu52     Cu     0.541460000000     0.267220000000     0.260060000000     0.858775   
Cu53     Cu     0.776430000000     0.469690000000     0.262870000000     0.851503   
Cu54     Cu     0.773660000000     0.026720000000     0.247860000000     0.85264    
Cu55     Cu     0.807670000000     0.010610000000     0.507050000000     0.841179   
Cu56     Cu     0.748720000000     0.502160000000     0.006590000000     0.855188   
Cu57     Cu     0.516710000000     0.239290000000     0.519180000000     0.849116   
Cu58     Cu     0.003700000000     0.296740000000     0.017570000000     0.842329   
Cu59     Cu     0.754120000000     0.264150000000     0.485020000000     0.855213   
Cu60     Cu     0.760670000000     0.254920000000     0.043140000000     0.836502   
Cu61     Cu     0.019580000000     0.528510000000     0.747060000000     0.862285   
Cu62     Cu     0.524120000000     0.014420000000     0.804520000000     0.846618   
Cu63     Cu     0.984170000000     0.268190000000     0.776770000000     0.843792   
Cu64     Cu     0.541460000000     0.267220000000     0.760060000000     0.858742   
Cu65     Cu     0.776430000000     0.469690000000     0.762870000000     0.851518   
Cu66     Cu     0.773660000000     0.026720000000     0.747860000000     0.852624   
Cu67     Cu     0.807670000000     0.010610000000     0.007050000000     0.837962   
Cu68     Cu     0.748720000000     0.502160000000     0.506600000000     0.858436   
Cu69     Cu     0.516710000000     0.239290000000     0.019180000000     0.846438   
Cu70     Cu     0.003700000000     0.296740000000     0.517570000000     0.845067   
Cu71     Cu     0.754120000000     0.264150000000     0.985020000000     0.857425   
Cu72     Cu     0.760670000000     0.254920000000     0.543140000000     0.840373   
Cu73     Cu     0.019580000000     0.028510000000     0.247060000000     0.860116   
Cu74     Cu     0.524120000000     0.514420000000     0.304520000000     0.84892    
Cu75     Cu     0.984170000000     0.768190000000     0.276770000000     0.843771   
Cu76     Cu     0.541460000000     0.767220000000     0.260060000000     0.858758   
Cu77     Cu     0.776430000000     0.969690000000     0.262870000000     0.853839   
Cu78     Cu     0.773660000000     0.526720000000     0.247860000000     0.854905   
Cu79     Cu     0.807670000000     0.510610000000     0.507050000000     0.843492   
Cu80     Cu     0.748720000000     0.002160000000     0.006590000000     0.852574   
Cu81     Cu     0.516710000000     0.739290000000     0.519180000000     0.849142   
Cu82     Cu     0.003700000000     0.796740000000     0.017570000000     0.842525   
Cu83     Cu     0.754120000000     0.764150000000     0.485020000000     0.855209   
Cu84     Cu     0.760670000000     0.754920000000     0.043140000000     0.836489   
Cu85     Cu     0.019580000000     0.028510000000     0.747060000000     0.860078   
Cu86     Cu     0.524120000000     0.514420000000     0.804520000000     0.849307   
Cu87     Cu     0.984170000000     0.768190000000     0.776770000000     0.84379    
Cu88     Cu     0.541460000000     0.767220000000     0.760060000000     0.858725   
Cu89     Cu     0.776430000000     0.969690000000     0.762870000000     0.853845   
Cu90     Cu     0.773660000000     0.526720000000     0.747860000000     0.854881   
Cu91     Cu     0.807670000000     0.510610000000     0.007050000000     0.840272   
Cu92     Cu     0.748720000000     0.002160000000     0.506600000000     0.855818   
Cu93     Cu     0.516710000000     0.739290000000     0.019180000000     0.846469   
Cu94     Cu     0.003700000000     0.796740000000     0.517570000000     0.845253   
Cu95     Cu     0.754120000000     0.764150000000     0.985020000000     0.857414   
Cu96     Cu     0.760670000000     0.754920000000     0.543140000000     0.840349   
H1       H      0.376200000000     0.297140000000     0.004820000000     0.0393209  
H2       H      0.414660000000     0.291030000000     0.961860000000     0.0436774  
H3       H      0.382160000000     0.241280000000     0.042720000000     0.0430233  
H4       H      0.419440000000     0.204130000000     0.515910000000     0.0485697  
H5       H      0.393930000000     0.256660000000     0.446660000000     0.0409026  
H6       H      0.395380000000     0.204810000000     0.479810000000     0.0472216  
H7       H      0.353690000000     0.291540000000     0.968710000000     0.0427613  
H8       H      0.133550000000     0.326300000000     0.038100000000     0.0424048  
H9       H      0.157490000000     0.303270000000     0.489210000000     0.0416437  
H10      H      0.134450000000     0.287150000000     0.083970000000     0.041534   
H11      H      0.161710000000     0.238150000000     0.068560000000     0.0485779  
H12      H      0.127530000000     0.272110000000     0.488610000000     0.0450223  
H13      H      0.131360000000     0.229480000000     0.539180000000     0.0499998  
H14      H      0.103050000000     0.322370000000     0.507440000000     0.0422259  
H15      H      0.284300000000     0.376390000000     0.469920000000     0.0438091  
H16      H      0.228960000000     0.361230000000     0.488110000000     0.0435291  
H17      H      0.326480000000     0.377190000000     0.516290000000     0.0390642  
H18      H      0.300510000000     0.352440000000     0.062400000000     0.0470946  
H19      H      0.230740000000     0.391850000000     0.018110000000     0.0478427  
H20      H      0.271730000000     0.384550000000     0.065690000000     0.0468523  
H21      H      0.256430000000     0.409080000000     0.466780000000     0.0411067  
H22      H      0.264720000000     0.122860000000     0.050960000000     0.0467501  
H23      H      0.220150000000     0.158710000000     0.043760000000     0.0438089  
H24      H      0.303920000000     0.132820000000     0.498320000000     0.0515096  
H25      H      0.276810000000     0.166840000000     0.458020000000     0.0487511  
H26      H      0.206320000000     0.137450000000     0.009080000000     0.0408059  
H27      H      0.242650000000     0.140080000000     0.457020000000     0.0478701  
H28      H      0.230080000000     0.098440000000     0.043750000000     0.0433475  
H29      H      0.273120000000     0.059870000000     0.377270000000     0.0500125  
H30      H      0.319410000000     0.034580000000     0.404650000000     0.051366   
H31      H      0.223120000000     0.522370000000     0.381630000000     0.0431903  
H32      H      0.236530000000     0.473230000000     0.410770000000     0.0473697  
H33      H      0.317710000000     0.001220000000     0.377620000000     0.0421142  
H34      H      0.266890000000     0.463630000000     0.381650000000     0.0484401  
H35      H      0.303580000000     0.050020000000     0.347940000000     0.0418735  
H36      H      0.330210000000     0.974360000000     0.131720000000     0.0485635  
H37      H      0.323170000000     0.027120000000     0.108160000000     0.0483674  
H38      H      0.276700000000     0.442930000000     0.127190000000     0.0436434  
H39      H      0.233200000000     0.475670000000     0.103870000000     0.0496292  
H40      H      0.293130000000     0.037180000000     0.137360000000     0.0482387  
H41      H      0.237540000000     0.504740000000     0.135370000000     0.0484287  
H42      H      0.333790000000     0.003750000000     0.163010000000     0.036063   
H43      H      0.498560000000     0.292410000000     0.385440000000     0.0473687  
H44      H      0.530610000000     0.324110000000     0.423540000000     0.0455042  
H45      H      0.523030000000     0.228940000000     0.382240000000     0.0400557  
H46      H      0.060680000000     0.225850000000     0.425970000000     0.0488188  
H47      H      0.067300000000     0.312580000000     0.403670000000     0.0429515  
H48      H      0.086820000000     0.255190000000     0.408550000000     0.0454377  
H49      H      0.523580000000     0.320720000000     0.364640000000     0.037115   
H50      H      0.003770000000     0.305000000000     0.154770000000     0.0451726  
H51      H      0.964320000000     0.311160000000     0.113060000000     0.0460006  
H52      H      0.023490000000     0.238800000000     0.150490000000     0.0541366  
H53      H      0.487980000000     0.211230000000     0.112000000000     0.05326    
H54      H      0.437400000000     0.283170000000     0.131620000000     0.0422649  
H55      H      0.452750000000     0.224650000000     0.133090000000     0.0475131  
H56      H      0.965710000000     0.309290000000     0.174550000000     0.0394935  
H57      H      0.146450000000     0.045480000000     0.257670000000     0.0512952  
H58      H      0.176770000000     0.029400000000     0.210750000000     0.0472582  
H59      H      0.146890000000     0.992930000000     0.300680000000     0.0514235  
H60      H      0.175560000000     0.448640000000     0.274030000000     0.0587074  
H61      H      0.149320000000     0.497250000000     0.202940000000     0.0477789  
H62      H      0.148020000000     0.449860000000     0.240700000000     0.0537282  
H63      H      0.119020000000     0.040920000000     0.224780000000     0.0558628  
H64      H      0.391730000000     0.524990000000     0.324390000000     0.0410867  
H65      H      0.374440000000     0.473300000000     0.302740000000     0.0419314  
H66      H      0.387630000000     0.066260000000     0.281830000000     0.0412084  
H67      H      0.371580000000     0.044950000000     0.228650000000     0.0488868  
H68      H      0.407350000000     0.473270000000     0.274400000000     0.0417016  
H69      H      0.405940000000     0.018950000000     0.229030000000     0.0492274  
H70      H      0.425340000000     0.497790000000     0.324880000000     0.0439953  
H71      H      0.460710000000     0.404820000000     0.256290000000     0.0403217  
H72      H      0.473660000000     0.367460000000     0.298540000000     0.0441296  
H73      H      0.505740000000     0.402870000000     0.212160000000     0.0402074  
H74      H      0.048650000000     0.365820000000     0.227650000000     0.0492401  
H75      H      0.009460000000     0.389020000000     0.308840000000     0.04646    
H76      H      0.057580000000     0.388600000000     0.263170000000     0.0562202  
H77      H      0.468700000000     0.427090000000     0.292190000000     0.0386681  
H78      H      0.527830000000     0.145930000000     0.333990000000     0.0460239  
H79      H      0.479090000000     0.169080000000     0.310830000000     0.0457137  
H80      H      0.072040000000     0.151240000000     0.292240000000     0.0496125  
H81      H      0.053290000000     0.169570000000     0.238500000000     0.0565688  
H82      H      0.477020000000     0.138310000000     0.280780000000     0.053348   
H83      H      0.024890000000     0.137340000000     0.237540000000     0.0630156  
H84      H      0.498660000000     0.114320000000     0.329670000000     0.0422888  
H85      H      0.376200000000     0.297140000000     0.504820000000     0.0430246  
H86      H      0.414660000000     0.291030000000     0.461860000000     0.0424841  
H87      H      0.382160000000     0.241280000000     0.542720000000     0.0435654  
H88      H      0.419440000000     0.204130000000     0.015910000000     0.0493298  
H89      H      0.393930000000     0.256660000000     0.946660000000     0.0415304  
H90      H      0.395380000000     0.204810000000     0.979810000000     0.0510895  
H91      H      0.353690000000     0.291540000000     0.468710000000     0.0434912  
H92      H      0.133550000000     0.326300000000     0.538100000000     0.0434014  
H93      H      0.157490000000     0.303270000000     0.989210000000     0.0460698  
H94      H      0.134450000000     0.287150000000     0.583960000000     0.0415788  
H95      H      0.161710000000     0.238150000000     0.568560000000     0.0485235  
H96      H      0.127530000000     0.272110000000     0.988610000000     0.0496044  
H97      H      0.131360000000     0.229480000000     0.039180000000     0.0495487  
H98      H      0.103050000000     0.322370000000     0.007440000000     0.0404872  
H99      H      0.284300000000     0.376390000000     0.969920000000     0.0431137  
H100     H      0.228960000000     0.361230000000     0.988110000000     0.047721   
H101     H      0.326480000000     0.377190000000     0.016290000000     0.0381472  
H102     H      0.300510000000     0.352440000000     0.562400000000     0.0469883  
H103     H      0.230740000000     0.391850000000     0.518110000000     0.0466006  
H104     H      0.271730000000     0.384550000000     0.565690000000     0.0466776  
H105     H      0.256430000000     0.409080000000     0.966780000000     0.040389   
H106     H      0.264720000000     0.122860000000     0.550960000000     0.0469205  
H107     H      0.220150000000     0.158710000000     0.543760000000     0.0438686  
H108     H      0.303920000000     0.132820000000     0.998320000000     0.0527481  
H109     H      0.276810000000     0.166840000000     0.958020000000     0.0487806  
H110     H      0.206320000000     0.137450000000     0.509080000000     0.0416367  
H111     H      0.242650000000     0.140080000000     0.957020000000     0.0482839  
H112     H      0.230080000000     0.098440000000     0.543750000000     0.0434146  
H113     H      0.273120000000     0.059870000000     0.877270000000     0.0501658  
H114     H      0.319410000000     0.034580000000     0.904650000000     0.0516812  
H115     H      0.223120000000     0.522370000000     0.881630000000     0.0434491  
H116     H      0.236530000000     0.473230000000     0.910760000000     0.0477841  
H117     H      0.317710000000     0.001220000000     0.877620000000     0.0423047  
H118     H      0.266890000000     0.463630000000     0.881650000000     0.0486201  
H119     H      0.303580000000     0.050020000000     0.847940000000     0.0419341  
H120     H      0.330210000000     0.974360000000     0.631720000000     0.0486096  
H121     H      0.323170000000     0.027120000000     0.608160000000     0.0484717  
H122     H      0.276700000000     0.442930000000     0.627190000000     0.0436434  
H123     H      0.233200000000     0.475670000000     0.603870000000     0.0497327  
H124     H      0.293130000000     0.037180000000     0.637360000000     0.0482624  
H125     H      0.237540000000     0.504740000000     0.635370000000     0.0484817  
H126     H      0.333790000000     0.003750000000     0.663010000000     0.0360971  
H127     H      0.498560000000     0.292410000000     0.885440000000     0.047542   
H128     H      0.530610000000     0.324110000000     0.923540000000     0.0459899  
H129     H      0.523030000000     0.228940000000     0.882240000000     0.0402368  
H130     H      0.060680000000     0.225850000000     0.925970000000     0.0492707  
H131     H      0.067300000000     0.312580000000     0.903670000000     0.0432399  
H132     H      0.086820000000     0.255190000000     0.908550000000     0.0456793  
H133     H      0.523580000000     0.320720000000     0.864640000000     0.0372364  
H134     H      0.003770000000     0.305000000000     0.654770000000     0.0451925  
H135     H      0.964320000000     0.311160000000     0.613060000000     0.0460906  
H136     H      0.023490000000     0.238800000000     0.650480000000     0.0541385  
H137     H      0.487980000000     0.211230000000     0.612000000000     0.053366   
H138     H      0.437400000000     0.283170000000     0.631620000000     0.0422997  
H139     H      0.452750000000     0.224650000000     0.633090000000     0.0475606  
H140     H      0.965710000000     0.309290000000     0.674550000000     0.0395094  
H141     H      0.146450000000     0.045480000000     0.757670000000     0.051328   
H142     H      0.176770000000     0.029400000000     0.710750000000     0.0472804  
H143     H      0.146890000000     0.992930000000     0.800680000000     0.0515084  
H144     H      0.175560000000     0.448640000000     0.774030000000     0.0587251  
H145     H      0.149320000000     0.497250000000     0.702940000000     0.0478244  
H146     H      0.148020000000     0.449860000000     0.740700000000     0.0537348  
H147     H      0.119020000000     0.040920000000     0.724780000000     0.0558972  
H148     H      0.391730000000     0.524990000000     0.824390000000     0.0412272  
H149     H      0.374440000000     0.473300000000     0.802740000000     0.0420083  
H150     H      0.387630000000     0.066260000000     0.781830000000     0.0412498  
H151     H      0.371580000000     0.044950000000     0.728650000000     0.0488937  
H152     H      0.407350000000     0.473270000000     0.774400000000     0.0417221  
H153     H      0.405940000000     0.018950000000     0.729030000000     0.0492506  
H154     H      0.425340000000     0.497790000000     0.824880000000     0.0441743  
H155     H      0.460710000000     0.404820000000     0.756290000000     0.0403397  
H156     H      0.473660000000     0.367460000000     0.798540000000     0.0442032  
H157     H      0.505740000000     0.402870000000     0.712160000000     0.0402448  
H158     H      0.048650000000     0.365820000000     0.727650000000     0.0492494  
H159     H      0.009460000000     0.389020000000     0.808840000000     0.0465737  
H160     H      0.057580000000     0.388600000000     0.763170000000     0.0562379  
H161     H      0.468700000000     0.427090000000     0.792190000000     0.0387479  
H162     H      0.527830000000     0.145930000000     0.833990000000     0.0461869  
H163     H      0.479090000000     0.169080000000     0.810830000000     0.045822   
H164     H      0.072040000000     0.151240000000     0.792240000000     0.0496608  
H165     H      0.053290000000     0.169570000000     0.738500000000     0.0565777  
H166     H      0.477020000000     0.138310000000     0.780790000000     0.0533834  
H167     H      0.024890000000     0.137340000000     0.737540000000     0.0630315  
H168     H      0.498660000000     0.114320000000     0.829670000000     0.0424594  
H169     H      0.376200000000     0.797140000000     0.004820000000     0.0393844  
H170     H      0.414660000000     0.791030000000     0.961860000000     0.0437349  
H171     H      0.382160000000     0.741290000000     0.042720000000     0.0430349  
H172     H      0.419440000000     0.704130000000     0.515910000000     0.0486164  
H173     H      0.393930000000     0.756660000000     0.446660000000     0.0409188  
H174     H      0.395380000000     0.704810000000     0.479810000000     0.0472531  
H175     H      0.353690000000     0.791540000000     0.968710000000     0.0428109  
H176     H      0.133550000000     0.826300000000     0.038100000000     0.0425221  
H177     H      0.157490000000     0.803270000000     0.489210000000     0.0416917  
H178     H      0.134450000000     0.787150000000     0.083970000000     0.0415674  
H179     H      0.161710000000     0.738150000000     0.068560000000     0.0485917  
H180     H      0.127530000000     0.772110000000     0.488610000000     0.0450355  
H181     H      0.131360000000     0.729480000000     0.539180000000     0.0500284  
H182     H      0.103050000000     0.822370000000     0.507440000000     0.0423393  
H183     H      0.284300000000     0.876390000000     0.469920000000     0.043919   
H184     H      0.228960000000     0.861230000000     0.488110000000     0.043622   
H185     H      0.326480000000     0.877190000000     0.516290000000     0.0391756  
H186     H      0.300510000000     0.852440000000     0.062400000000     0.0471216  
H187     H      0.230740000000     0.891850000000     0.018110000000     0.0480397  
H188     H      0.271730000000     0.884550000000     0.065690000000     0.0469552  
H189     H      0.256430000000     0.909080000000     0.466780000000     0.0413787  
H190     H      0.264720000000     0.622860000000     0.050960000000     0.0467701  
H191     H      0.220150000000     0.658710000000     0.043760000000     0.0438433  
H192     H      0.303920000000     0.632820000000     0.498320000000     0.0515345  
H193     H      0.276810000000     0.666840000000     0.458020000000     0.0487542  
H194     H      0.206320000000     0.637450000000     0.009080000000     0.0408929  
H195     H      0.242650000000     0.640070000000     0.457020000000     0.0479119  
H196     H      0.230080000000     0.598440000000     0.043750000000     0.0434465  
H197     H      0.273120000000     0.559860000000     0.377270000000     0.0499431  
H198     H      0.319410000000     0.534580000000     0.404650000000     0.0515979  
H199     H      0.223120000000     0.022370000000     0.381630000000     0.0438388  
H200     H      0.236530000000     0.973230000000     0.410770000000     0.0469824  
H201     H      0.317710000000     0.501220000000     0.377620000000     0.0430026  
H202     H      0.266890000000     0.963630000000     0.381650000000     0.0478619  
H203     H      0.303580000000     0.550020000000     0.347940000000     0.0418719  
H204     H      0.330210000000     0.474360000000     0.131720000000     0.0491438  
H205     H      0.323170000000     0.527120000000     0.108160000000     0.0479454  
H206     H      0.276700000000     0.942930000000     0.127190000000     0.0439764  
H207     H      0.233200000000     0.975670000000     0.103870000000     0.0494021  
H208     H      0.293130000000     0.537180000000     0.137360000000     0.047708   
H209     H      0.237540000000     0.004740000000     0.135370000000     0.0455682  
H210     H      0.333790000000     0.503750000000     0.163010000000     0.0391323  
H211     H      0.498560000000     0.792410000000     0.385440000000     0.0473933  
H212     H      0.530610000000     0.824110000000     0.423540000000     0.0456299  
H213     H      0.523030000000     0.728940000000     0.382240000000     0.0400686  
H214     H      0.060680000000     0.725850000000     0.425970000000     0.0488538  
H215     H      0.067300000000     0.812580000000     0.403670000000     0.0430281  
H216     H      0.086820000000     0.755190000000     0.408550000000     0.0454559  
H217     H      0.523580000000     0.820730000000     0.364640000000     0.0371665  
H218     H      0.003770000000     0.805000000000     0.154770000000     0.0452223  
H219     H      0.964320000000     0.811160000000     0.113060000000     0.046088   
H220     H      0.023490000000     0.738800000000     0.150490000000     0.0541487  
H221     H      0.487980000000     0.711230000000     0.112000000000     0.0533058  
H222     H      0.437400000000     0.783170000000     0.131620000000     0.0422915  
H223     H      0.452750000000     0.724650000000     0.133090000000     0.0475322  
H224     H      0.965710000000     0.809290000000     0.174550000000     0.0395454  
H225     H      0.146450000000     0.545480000000     0.257670000000     0.0518703  
H226     H      0.176770000000     0.529400000000     0.210750000000     0.0465706  
H227     H      0.146890000000     0.492930000000     0.300680000000     0.0509532  
H228     H      0.175560000000     0.948640000000     0.274030000000     0.0587739  
H229     H      0.149320000000     0.997250000000     0.202940000000     0.0508422  
H230     H      0.148020000000     0.949860000000     0.240700000000     0.0540451  
H231     H      0.119020000000     0.540920000000     0.224780000000     0.0564489  
H232     H      0.391730000000     0.024990000000     0.324390000000     0.0419197  
H233     H      0.374440000000     0.973300000000     0.302740000000     0.0413979  
H234     H      0.387630000000     0.566260000000     0.281830000000     0.0411496  
H235     H      0.371580000000     0.544950000000     0.228650000000     0.0489863  
H236     H      0.407350000000     0.973270000000     0.274400000000     0.0412666  
H237     H      0.405940000000     0.518950000000     0.229030000000     0.0498654  
H238     H      0.425340000000     0.997790000000     0.324880000000     0.0474005  
H239     H      0.460710000000     0.904820000000     0.256290000000     0.0405074  
H240     H      0.473660000000     0.867460000000     0.298540000000     0.0442064  
H241     H      0.505740000000     0.902870000000     0.212160000000     0.0403894  
H242     H      0.048650000000     0.865820000000     0.227650000000     0.0492729  
H243     H      0.009460000000     0.889020000000     0.308840000000     0.0465998  
H244     H      0.057580000000     0.888600000000     0.263170000000     0.0562794  
H245     H      0.468700000000     0.927090000000     0.292190000000     0.0389668  
H246     H      0.527830000000     0.645930000000     0.333990000000     0.0460787  
H247     H      0.479090000000     0.669080000000     0.310830000000     0.0457244  
H248     H      0.072040000000     0.651240000000     0.292240000000     0.0496354  
H249     H      0.053290000000     0.669570000000     0.238500000000     0.0565861  
H250     H      0.477020000000     0.638310000000     0.280780000000     0.053349   
H251     H      0.024890000000     0.637340000000     0.237540000000     0.0630521  
H252     H      0.498660000000     0.614320000000     0.329670000000     0.0423663  
H253     H      0.376200000000     0.797140000000     0.504820000000     0.0430765  
H254     H      0.414660000000     0.791030000000     0.461860000000     0.0425463  
H255     H      0.382160000000     0.741290000000     0.542720000000     0.0435756  
H256     H      0.419440000000     0.704130000000     0.015910000000     0.0493742  
H257     H      0.393930000000     0.756660000000     0.946660000000     0.0415448  
H258     H      0.395380000000     0.704810000000     0.979810000000     0.0511121  
H259     H      0.353690000000     0.791540000000     0.468710000000     0.0435392  
H260     H      0.133550000000     0.826300000000     0.538100000000     0.0435151  
H261     H      0.157490000000     0.803270000000     0.989210000000     0.0461021  
H262     H      0.134450000000     0.787150000000     0.583960000000     0.0416119  
H263     H      0.161710000000     0.738150000000     0.568560000000     0.0485378  
H264     H      0.127530000000     0.772110000000     0.988610000000     0.0496025  
H265     H      0.131360000000     0.729480000000     0.039180000000     0.0495778  
H266     H      0.103050000000     0.822370000000     0.007440000000     0.040606   
H267     H      0.284300000000     0.876390000000     0.969920000000     0.0432267  
H268     H      0.228960000000     0.861230000000     0.988110000000     0.0477936  
H269     H      0.326480000000     0.877190000000     0.016290000000     0.0382619  
H270     H      0.300510000000     0.852440000000     0.562400000000     0.0470157  
H271     H      0.230740000000     0.891850000000     0.518110000000     0.0468035  
H272     H      0.271730000000     0.884550000000     0.565690000000     0.0467811  
H273     H      0.256430000000     0.909080000000     0.966780000000     0.0406623  
H274     H      0.264720000000     0.622860000000     0.550960000000     0.0469402  
H275     H      0.220150000000     0.658710000000     0.543760000000     0.0439031  
H276     H      0.303920000000     0.632820000000     0.998320000000     0.0527703  
H277     H      0.276810000000     0.666840000000     0.958020000000     0.0487835  
H278     H      0.206320000000     0.637450000000     0.509080000000     0.0417235  
H279     H      0.242650000000     0.640070000000     0.957020000000     0.0483252  
H280     H      0.230080000000     0.598440000000     0.543750000000     0.0435138  
H281     H      0.273120000000     0.559860000000     0.877270000000     0.0500966  
H282     H      0.319410000000     0.534580000000     0.904650000000     0.0519121  
H283     H      0.223120000000     0.022370000000     0.881630000000     0.0440928  
H284     H      0.236530000000     0.973230000000     0.910760000000     0.0473959  
H285     H      0.317710000000     0.501220000000     0.877620000000     0.0431895  
H286     H      0.266890000000     0.963630000000     0.881650000000     0.0480449  
H287     H      0.303580000000     0.550020000000     0.847940000000     0.0419326  
H288     H      0.330210000000     0.474360000000     0.631720000000     0.0491884  
H289     H      0.323170000000     0.527120000000     0.608160000000     0.0480513  
H290     H      0.276700000000     0.942930000000     0.627190000000     0.0439762  
H291     H      0.233200000000     0.975670000000     0.603870000000     0.0495064  
H292     H      0.293130000000     0.537180000000     0.637360000000     0.0477329  
H293     H      0.237540000000     0.004740000000     0.635370000000     0.0456257  
H294     H      0.333790000000     0.503750000000     0.663010000000     0.0391594  
H295     H      0.498560000000     0.792410000000     0.885440000000     0.0475658  
H296     H      0.530610000000     0.824110000000     0.923540000000     0.0461128  
H297     H      0.523030000000     0.728940000000     0.882240000000     0.0402494  
H298     H      0.060680000000     0.725850000000     0.925970000000     0.0493046  
H299     H      0.067300000000     0.812580000000     0.903670000000     0.0433149  
H300     H      0.086820000000     0.755190000000     0.908550000000     0.0456967  
H301     H      0.523580000000     0.820730000000     0.864640000000     0.0372871  
H302     H      0.003770000000     0.805000000000     0.654770000000     0.0452421  
H303     H      0.964320000000     0.811160000000     0.613060000000     0.0461776  
H304     H      0.023490000000     0.738800000000     0.650480000000     0.0541507  
H305     H      0.487980000000     0.711230000000     0.612000000000     0.0534118  
H306     H      0.437400000000     0.783170000000     0.631620000000     0.0423261  
H307     H      0.452750000000     0.724650000000     0.633090000000     0.0475797  
H308     H      0.965710000000     0.809290000000     0.674550000000     0.0395611  
H309     H      0.146450000000     0.545480000000     0.757670000000     0.0519009  
H310     H      0.176770000000     0.529400000000     0.710750000000     0.0465954  
H311     H      0.146890000000     0.492930000000     0.800680000000     0.0510414  
H312     H      0.175560000000     0.948640000000     0.774030000000     0.0587912  
H313     H      0.149320000000     0.997250000000     0.702940000000     0.0508771  
H314     H      0.148020000000     0.949860000000     0.740700000000     0.0540506  
H315     H      0.119020000000     0.540920000000     0.724780000000     0.0564819  
H316     H      0.391730000000     0.024990000000     0.824390000000     0.0420561  
H317     H      0.374440000000     0.973300000000     0.802740000000     0.0414765  
H318     H      0.387630000000     0.566260000000     0.781830000000     0.0411912  
H319     H      0.371580000000     0.544950000000     0.728650000000     0.0489931  
H320     H      0.407350000000     0.973270000000     0.774400000000     0.0412894  
H321     H      0.405940000000     0.518950000000     0.729030000000     0.049887   
H322     H      0.425340000000     0.997790000000     0.824880000000     0.0475615  
H323     H      0.460710000000     0.904820000000     0.756290000000     0.0405247  
H324     H      0.473660000000     0.867460000000     0.798540000000     0.0442793  
H325     H      0.505740000000     0.902870000000     0.712160000000     0.0404262  
H326     H      0.048650000000     0.865820000000     0.727650000000     0.0492821  
H327     H      0.009460000000     0.889020000000     0.808840000000     0.0467121  
H328     H      0.057580000000     0.888600000000     0.763170000000     0.0562968  
H329     H      0.468700000000     0.927090000000     0.792190000000     0.0390447  
H330     H      0.527830000000     0.645930000000     0.833990000000     0.0462413  
H331     H      0.479090000000     0.669080000000     0.810830000000     0.0458326  
H332     H      0.072040000000     0.651240000000     0.792240000000     0.0496835  
H333     H      0.053290000000     0.669570000000     0.738500000000     0.0565951  
H334     H      0.477020000000     0.638310000000     0.780790000000     0.0533844  
H335     H      0.024890000000     0.637340000000     0.737540000000     0.0630681  
H336     H      0.498660000000     0.614320000000     0.829670000000     0.0425364  
H337     H      0.876200000000     0.297140000000     0.004820000000     0.0393247  
H338     H      0.914660000000     0.291030000000     0.961860000000     0.0436875  
H339     H      0.882160000000     0.241280000000     0.042720000000     0.0430254  
H340     H      0.919440000000     0.204130000000     0.515910000000     0.048579   
H341     H      0.893930000000     0.256660000000     0.446660000000     0.0409078  
H342     H      0.895380000000     0.204810000000     0.479810000000     0.0472272  
H343     H      0.853690000000     0.291540000000     0.968710000000     0.0427629  
H344     H      0.633550000000     0.326300000000     0.038100000000     0.042404   
H345     H      0.657490000000     0.303270000000     0.489210000000     0.0416479  
H346     H      0.634450000000     0.287150000000     0.083970000000     0.0415348  
H347     H      0.661710000000     0.238150000000     0.068560000000     0.048578   
H348     H      0.627540000000     0.272110000000     0.488610000000     0.0450326  
H349     H      0.631360000000     0.229480000000     0.539180000000     0.0500014  
H350     H      0.603050000000     0.322370000000     0.507440000000     0.042221   
H351     H      0.784300000000     0.376390000000     0.469920000000     0.0438211  
H352     H      0.728960000000     0.361230000000     0.488110000000     0.0435243  
H353     H      0.826480000000     0.377190000000     0.516290000000     0.0390702  
H354     H      0.800510000000     0.352440000000     0.062400000000     0.047094   
H355     H      0.730740000000     0.391850000000     0.018110000000     0.0478408  
H356     H      0.771730000000     0.384550000000     0.065690000000     0.0468521  
H357     H      0.756430000000     0.409080000000     0.466780000000     0.0411238  
H358     H      0.764720000000     0.122860000000     0.050960000000     0.0467505  
H359     H      0.720150000000     0.158710000000     0.043760000000     0.0438091  
H360     H      0.803920000000     0.132820000000     0.498320000000     0.0515111  
H361     H      0.776810000000     0.166840000000     0.458020000000     0.048751   
H362     H      0.706320000000     0.137450000000     0.009080000000     0.0408069  
H363     H      0.742650000000     0.140080000000     0.457020000000     0.0478699  
H364     H      0.730080000000     0.098440000000     0.043750000000     0.0433483  
H365     H      0.773120000000     0.059870000000     0.377270000000     0.0500121  
H366     H      0.819410000000     0.034580000000     0.404650000000     0.0513688  
H367     H      0.723120000000     0.522370000000     0.381630000000     0.0431903  
H368     H      0.736530000000     0.473230000000     0.410770000000     0.0473693  
H369     H      0.817710000000     0.001220000000     0.377620000000     0.0421163  
H370     H      0.766890000000     0.463630000000     0.381650000000     0.0484401  
H371     H      0.803580000000     0.050020000000     0.347940000000     0.0418735  
H372     H      0.830210000000     0.974360000000     0.131720000000     0.0485701  
H373     H      0.823180000000     0.027120000000     0.108160000000     0.0483523  
H374     H      0.776700000000     0.442930000000     0.127190000000     0.0436517  
H375     H      0.733200000000     0.475670000000     0.103870000000     0.0495922  
H376     H      0.793130000000     0.037180000000     0.137360000000     0.0482293  
H377     H      0.737540000000     0.504740000000     0.135370000000     0.0483925  
H378     H      0.833790000000     0.003750000000     0.163010000000     0.0360697  
H379     H      0.998560000000     0.292410000000     0.385440000000     0.0474581  
H380     H      0.030610000000     0.324110000000     0.423540000000     0.0454828  
H381     H      0.023020000000     0.228940000000     0.382240000000     0.0400269  
H382     H      0.560680000000     0.225850000000     0.425970000000     0.0488222  
H383     H      0.567300000000     0.312580000000     0.403670000000     0.0429572  
H384     H      0.586820000000     0.255190000000     0.408550000000     0.0454345  
H385     H      0.023580000000     0.320720000000     0.364640000000     0.0371214  
H386     H      0.503770000000     0.305000000000     0.154770000000     0.0452567  
H387     H      0.464320000000     0.311160000000     0.113060000000     0.0459793  
H388     H      0.523500000000     0.238800000000     0.150490000000     0.0542051  
H389     H      0.987980000000     0.211230000000     0.112000000000     0.0532916  
H390     H      0.937400000000     0.283170000000     0.131620000000     0.0422704  
H391     H      0.952750000000     0.224650000000     0.133090000000     0.0475167  
H392     H      0.465700000000     0.309290000000     0.174550000000     0.039498   
H393     H      0.646450000000     0.045480000000     0.257670000000     0.0512931  
H394     H      0.676770000000     0.029400000000     0.210750000000     0.0472523  
H395     H      0.646890000000     0.992930000000     0.300680000000     0.0514232  
H396     H      0.675560000000     0.448640000000     0.274030000000     0.0586998  
H397     H      0.649320000000     0.497250000000     0.202940000000     0.0477781  
H398     H      0.648020000000     0.449860000000     0.240700000000     0.0537256  
H399     H      0.619020000000     0.040920000000     0.224780000000     0.0558631  
H400     H      0.891720000000     0.524990000000     0.324390000000     0.0410768  
H401     H      0.874440000000     0.473300000000     0.302740000000     0.0419358  
H402     H      0.887630000000     0.066260000000     0.281830000000     0.041206   
H403     H      0.871580000000     0.044950000000     0.228650000000     0.0488957  
H404     H      0.907350000000     0.473270000000     0.274400000000     0.0417114  
H405     H      0.905940000000     0.018950000000     0.229030000000     0.0492477  
H406     H      0.925340000000     0.497790000000     0.324880000000     0.0439999  
H407     H      0.960710000000     0.404820000000     0.256290000000     0.0403274  
H408     H      0.973660000000     0.367460000000     0.298540000000     0.044114   
H409     H      0.005740000000     0.402870000000     0.212160000000     0.0401822  
H410     H      0.548650000000     0.365820000000     0.227650000000     0.0492421  
H411     H      0.509460000000     0.389020000000     0.308840000000     0.046544   
H412     H      0.557580000000     0.388600000000     0.263170000000     0.0562201  
H413     H      0.968690000000     0.427090000000     0.292190000000     0.0386719  
H414     H      0.027830000000     0.145930000000     0.333990000000     0.0460498  
H415     H      0.979090000000     0.169080000000     0.310830000000     0.0456951  
H416     H      0.572040000000     0.151240000000     0.292240000000     0.0496131  
H417     H      0.553300000000     0.169570000000     0.238500000000     0.0565576  
H418     H      0.977020000000     0.138310000000     0.280780000000     0.0533291  
H419     H      0.524880000000     0.137340000000     0.237540000000     0.0630323  
H420     H      0.998660000000     0.114320000000     0.329670000000     0.0423939  
H421     H      0.876200000000     0.297140000000     0.504820000000     0.043028   
H422     H      0.914660000000     0.291030000000     0.461860000000     0.0424943  
H423     H      0.882160000000     0.241280000000     0.542720000000     0.0435674  
H424     H      0.919440000000     0.204130000000     0.015910000000     0.049339   
H425     H      0.893930000000     0.256660000000     0.946660000000     0.0415355  
H426     H      0.895380000000     0.204810000000     0.979810000000     0.0510947  
H427     H      0.853690000000     0.291540000000     0.468710000000     0.0434927  
H428     H      0.633550000000     0.326300000000     0.538100000000     0.0434007  
H429     H      0.657490000000     0.303270000000     0.989210000000     0.0460744  
H430     H      0.634450000000     0.287150000000     0.583960000000     0.0415795  
H431     H      0.661710000000     0.238150000000     0.568560000000     0.0485236  
H432     H      0.627540000000     0.272110000000     0.988610000000     0.0496163  
H433     H      0.631360000000     0.229480000000     0.039180000000     0.0495502  
H434     H      0.603050000000     0.322370000000     0.007440000000     0.0404821  
H435     H      0.784300000000     0.376390000000     0.969920000000     0.0431264  
H436     H      0.728960000000     0.361230000000     0.988110000000     0.0477164  
H437     H      0.826480000000     0.377190000000     0.016290000000     0.0381533  
H438     H      0.800510000000     0.352440000000     0.562400000000     0.0469876  
H439     H      0.730740000000     0.391850000000     0.518110000000     0.0465983  
H440     H      0.771730000000     0.384550000000     0.565690000000     0.0466775  
H441     H      0.756430000000     0.409080000000     0.966780000000     0.0404046  
H442     H      0.764720000000     0.122860000000     0.550960000000     0.046921   
H443     H      0.720150000000     0.158710000000     0.543760000000     0.0438688  
H444     H      0.803920000000     0.132820000000     0.998320000000     0.0527495  
H445     H      0.776810000000     0.166840000000     0.958020000000     0.0487804  
H446     H      0.706320000000     0.137450000000     0.509080000000     0.0416377  
H447     H      0.742650000000     0.140080000000     0.957020000000     0.0482836  
H448     H      0.730080000000     0.098440000000     0.543750000000     0.0434154  
H449     H      0.773120000000     0.059870000000     0.877270000000     0.0501654  
H450     H      0.819410000000     0.034580000000     0.904650000000     0.051684   
H451     H      0.723120000000     0.522370000000     0.881630000000     0.0434491  
H452     H      0.736530000000     0.473230000000     0.910760000000     0.0477837  
H453     H      0.817710000000     0.001220000000     0.877620000000     0.0423067  
H454     H      0.766890000000     0.463630000000     0.881650000000     0.0486201  
H455     H      0.803580000000     0.050020000000     0.847940000000     0.0419341  
H456     H      0.830210000000     0.974360000000     0.631720000000     0.0486162  
H457     H      0.823180000000     0.027120000000     0.608160000000     0.0484567  
H458     H      0.776700000000     0.442930000000     0.627190000000     0.0436517  
H459     H      0.733200000000     0.475670000000     0.603870000000     0.0496957  
H460     H      0.793130000000     0.037180000000     0.637360000000     0.048253   
H461     H      0.737540000000     0.504740000000     0.635370000000     0.0484454  
H462     H      0.833790000000     0.003750000000     0.663010000000     0.0361038  
H463     H      0.998560000000     0.292410000000     0.885440000000     0.0476308  
H464     H      0.030610000000     0.324110000000     0.923540000000     0.0459687  
H465     H      0.023020000000     0.228940000000     0.882240000000     0.0402082  
H466     H      0.560680000000     0.225850000000     0.925970000000     0.0492741  
H467     H      0.567300000000     0.312580000000     0.903670000000     0.0432456  
H468     H      0.586820000000     0.255190000000     0.908550000000     0.0456761  
H469     H      0.023580000000     0.320720000000     0.864640000000     0.0372427  
H470     H      0.503770000000     0.305000000000     0.654770000000     0.0452765  
H471     H      0.464320000000     0.311160000000     0.613060000000     0.0460694  
H472     H      0.523500000000     0.238800000000     0.650480000000     0.0542068  
H473     H      0.987980000000     0.211230000000     0.612000000000     0.0533976  
H474     H      0.937400000000     0.283170000000     0.631620000000     0.0423052  
H475     H      0.952750000000     0.224650000000     0.633090000000     0.0475642  
H476     H      0.465700000000     0.309290000000     0.674550000000     0.0395138  
H477     H      0.646450000000     0.045480000000     0.757670000000     0.051326   
H478     H      0.676770000000     0.029400000000     0.710750000000     0.0472745  
H479     H      0.646890000000     0.992930000000     0.800680000000     0.0515081  
H480     H      0.675560000000     0.448640000000     0.774030000000     0.0587175  
H481     H      0.649320000000     0.497250000000     0.702940000000     0.0478236  
H482     H      0.648020000000     0.449860000000     0.740700000000     0.0537322  
H483     H      0.619020000000     0.040920000000     0.724780000000     0.0558975  
H484     H      0.891720000000     0.524990000000     0.824390000000     0.0412173  
H485     H      0.874440000000     0.473300000000     0.802740000000     0.0420127  
H486     H      0.887630000000     0.066260000000     0.781830000000     0.0412473  
H487     H      0.871580000000     0.044950000000     0.728650000000     0.0489025  
H488     H      0.907350000000     0.473270000000     0.774400000000     0.0417319  
H489     H      0.905940000000     0.018950000000     0.729030000000     0.0492709  
H490     H      0.925340000000     0.497790000000     0.824880000000     0.0441788  
H491     H      0.960710000000     0.404820000000     0.756290000000     0.0403454  
H492     H      0.973660000000     0.367460000000     0.798540000000     0.0441877  
H493     H      0.005740000000     0.402870000000     0.712160000000     0.0402197  
H494     H      0.548650000000     0.365820000000     0.727650000000     0.0492514  
H495     H      0.509460000000     0.389020000000     0.808840000000     0.0466572  
H496     H      0.557580000000     0.388600000000     0.763170000000     0.0562378  
H497     H      0.968690000000     0.427090000000     0.792190000000     0.0387516  
H498     H      0.027830000000     0.145930000000     0.833990000000     0.0462127  
H499     H      0.979090000000     0.169080000000     0.810830000000     0.0458035  
H500     H      0.572040000000     0.151240000000     0.792240000000     0.0496614  
H501     H      0.553300000000     0.169570000000     0.738500000000     0.0565665  
H502     H      0.977020000000     0.138310000000     0.780790000000     0.0533646  
H503     H      0.524880000000     0.137340000000     0.737540000000     0.0630482  
H504     H      0.998660000000     0.114320000000     0.829670000000     0.0425639  
H505     H      0.876200000000     0.797140000000     0.004820000000     0.0393882  
H506     H      0.914660000000     0.791030000000     0.961860000000     0.0437449  
H507     H      0.882160000000     0.741290000000     0.042720000000     0.043037   
H508     H      0.919440000000     0.704130000000     0.515910000000     0.0486257  
H509     H      0.893930000000     0.756660000000     0.446660000000     0.040924   
H510     H      0.895380000000     0.704810000000     0.479810000000     0.0472587  
H511     H      0.853690000000     0.791540000000     0.968710000000     0.0428124  
H512     H      0.633550000000     0.826300000000     0.038100000000     0.0425212  
H513     H      0.657490000000     0.803270000000     0.489210000000     0.0416959  
H514     H      0.634450000000     0.787150000000     0.083970000000     0.0415681  
H515     H      0.661710000000     0.738150000000     0.068560000000     0.0485918  
H516     H      0.627540000000     0.772110000000     0.488610000000     0.0450458  
H517     H      0.631360000000     0.729480000000     0.539180000000     0.05003    
H518     H      0.603050000000     0.822370000000     0.507440000000     0.0423344  
H519     H      0.784300000000     0.876390000000     0.469920000000     0.043931   
H520     H      0.728960000000     0.861230000000     0.488110000000     0.0436172  
H521     H      0.826480000000     0.877190000000     0.516290000000     0.0391815  
H522     H      0.800510000000     0.852440000000     0.062400000000     0.0471209  
H523     H      0.730740000000     0.891850000000     0.018110000000     0.0480378  
H524     H      0.771730000000     0.884550000000     0.065690000000     0.0469551  
H525     H      0.756430000000     0.909080000000     0.466780000000     0.0413958  
H526     H      0.764720000000     0.622860000000     0.050960000000     0.0467705  
H527     H      0.720150000000     0.658710000000     0.043760000000     0.0438435  
H528     H      0.803920000000     0.632820000000     0.498320000000     0.051536   
H529     H      0.776810000000     0.666840000000     0.458020000000     0.0487541  
H530     H      0.706320000000     0.637450000000     0.009080000000     0.0408939  
H531     H      0.742650000000     0.640070000000     0.457020000000     0.0479116  
H532     H      0.730080000000     0.598440000000     0.043750000000     0.0434473  
H533     H      0.773120000000     0.559860000000     0.377270000000     0.0499427  
H534     H      0.819410000000     0.534580000000     0.404650000000     0.0516007  
H535     H      0.723120000000     0.022370000000     0.381630000000     0.0438388  
H536     H      0.736530000000     0.973230000000     0.410770000000     0.046982   
H537     H      0.817710000000     0.501220000000     0.377620000000     0.0430046  
H538     H      0.766890000000     0.963630000000     0.381650000000     0.0478619  
H539     H      0.803580000000     0.550020000000     0.347940000000     0.0418719  
H540     H      0.830210000000     0.474360000000     0.131720000000     0.0491503  
H541     H      0.823180000000     0.527120000000     0.108160000000     0.0479313  
H542     H      0.776700000000     0.942930000000     0.127190000000     0.0439847  
H543     H      0.733200000000     0.975670000000     0.103870000000     0.0493663  
H544     H      0.793130000000     0.537180000000     0.137360000000     0.0476988  
H545     H      0.737540000000     0.004740000000     0.135370000000     0.0455332  
H546     H      0.833790000000     0.503750000000     0.163010000000     0.0391386  
H547     H      0.998560000000     0.792410000000     0.385440000000     0.0474824  
H548     H      0.030610000000     0.824110000000     0.423540000000     0.0456085  
H549     H      0.023020000000     0.728940000000     0.382240000000     0.0400399  
H550     H      0.560680000000     0.725850000000     0.425970000000     0.0488573  
H551     H      0.567300000000     0.812580000000     0.403670000000     0.0430338  
H552     H      0.586820000000     0.755190000000     0.408550000000     0.0454527  
H553     H      0.023580000000     0.820730000000     0.364640000000     0.0371729  
H554     H      0.503770000000     0.805000000000     0.154770000000     0.0453062  
H555     H      0.464320000000     0.811160000000     0.113060000000     0.0460669  
H556     H      0.523500000000     0.738800000000     0.150490000000     0.0542171  
H557     H      0.987980000000     0.711230000000     0.112000000000     0.0533373  
H558     H      0.937400000000     0.783170000000     0.131620000000     0.0422969  
H559     H      0.952750000000     0.724650000000     0.133090000000     0.0475357  
H560     H      0.465700000000     0.809290000000     0.174550000000     0.0395499  
H561     H      0.646450000000     0.545480000000     0.257670000000     0.0518682  
H562     H      0.676770000000     0.529400000000     0.210750000000     0.0465647  
H563     H      0.646890000000     0.492930000000     0.300680000000     0.0509529  
H564     H      0.675560000000     0.948640000000     0.274030000000     0.0587663  
H565     H      0.649320000000     0.997250000000     0.202940000000     0.0508413  
H566     H      0.648020000000     0.949860000000     0.240700000000     0.0540425  
H567     H      0.619020000000     0.540920000000     0.224780000000     0.0564492  
H568     H      0.891720000000     0.024990000000     0.324390000000     0.0419086  
H569     H      0.874440000000     0.973300000000     0.302740000000     0.0414026  
H570     H      0.887630000000     0.566260000000     0.281830000000     0.0411472  
H571     H      0.871580000000     0.544950000000     0.228650000000     0.0489951  
H572     H      0.907350000000     0.973270000000     0.274400000000     0.0412765  
H573     H      0.905940000000     0.518950000000     0.229030000000     0.0498856  
H574     H      0.925340000000     0.997790000000     0.324880000000     0.0474043  
H575     H      0.960710000000     0.904820000000     0.256290000000     0.0405131  
H576     H      0.973660000000     0.867460000000     0.298540000000     0.0441909  
H577     H      0.005740000000     0.902870000000     0.212160000000     0.0403644  
H578     H      0.548650000000     0.865820000000     0.227650000000     0.0492749  
H579     H      0.509460000000     0.889020000000     0.308840000000     0.0466833  
H580     H      0.557580000000     0.888600000000     0.263170000000     0.0562792  
H581     H      0.968690000000     0.927090000000     0.292190000000     0.0389704  
H582     H      0.027830000000     0.645930000000     0.333990000000     0.0461046  
H583     H      0.979090000000     0.669080000000     0.310830000000     0.0457059  
H584     H      0.572040000000     0.651240000000     0.292240000000     0.049636   
H585     H      0.553300000000     0.669570000000     0.238500000000     0.056575   
H586     H      0.977020000000     0.638310000000     0.280780000000     0.0533301  
H587     H      0.524880000000     0.637340000000     0.237540000000     0.0630689  
H588     H      0.998660000000     0.614320000000     0.329670000000     0.0424714  
H589     H      0.876200000000     0.797140000000     0.504820000000     0.0430799  
H590     H      0.914660000000     0.791030000000     0.461860000000     0.0425566  
H591     H      0.882160000000     0.741290000000     0.542720000000     0.0435775  
H592     H      0.919440000000     0.704130000000     0.015910000000     0.0493833  
H593     H      0.893930000000     0.756660000000     0.946660000000     0.0415499  
H594     H      0.895380000000     0.704810000000     0.979810000000     0.0511172  
H595     H      0.853690000000     0.791540000000     0.468710000000     0.0435407  
H596     H      0.633550000000     0.826300000000     0.538100000000     0.0435144  
H597     H      0.657490000000     0.803270000000     0.989210000000     0.0461067  
H598     H      0.634450000000     0.787150000000     0.583960000000     0.0416126  
H599     H      0.661710000000     0.738150000000     0.568560000000     0.0485378  
H600     H      0.627540000000     0.772110000000     0.988610000000     0.0496144  
H601     H      0.631360000000     0.729480000000     0.039180000000     0.0495793  
H602     H      0.603050000000     0.822370000000     0.007440000000     0.0406009  
H603     H      0.784300000000     0.876390000000     0.969920000000     0.0432393  
H604     H      0.728960000000     0.861230000000     0.988110000000     0.047789   
H605     H      0.826480000000     0.877190000000     0.016290000000     0.038268   
H606     H      0.800510000000     0.852440000000     0.562400000000     0.047015   
H607     H      0.730740000000     0.891850000000     0.518110000000     0.0468012  
H608     H      0.771730000000     0.884550000000     0.565690000000     0.0467809  
H609     H      0.756430000000     0.909080000000     0.966780000000     0.0406779  
H610     H      0.764720000000     0.622860000000     0.550960000000     0.0469406  
H611     H      0.720150000000     0.658710000000     0.543760000000     0.0439033  
H612     H      0.803920000000     0.632820000000     0.998320000000     0.0527717  
H613     H      0.776810000000     0.666840000000     0.958020000000     0.0487834  
H614     H      0.706320000000     0.637450000000     0.509080000000     0.0417245  
H615     H      0.742650000000     0.640070000000     0.957020000000     0.048325   
H616     H      0.730080000000     0.598440000000     0.543750000000     0.0435146  
H617     H      0.773120000000     0.559860000000     0.877270000000     0.0500962  
H618     H      0.819410000000     0.534580000000     0.904650000000     0.0519149  
H619     H      0.723120000000     0.022370000000     0.881630000000     0.0440928  
H620     H      0.736530000000     0.973230000000     0.910760000000     0.0473956  
H621     H      0.817710000000     0.501220000000     0.877620000000     0.0431914  
H622     H      0.766890000000     0.963630000000     0.881650000000     0.0480449  
H623     H      0.803580000000     0.550020000000     0.847940000000     0.0419326  
H624     H      0.830210000000     0.474360000000     0.631720000000     0.049195   
H625     H      0.823180000000     0.527120000000     0.608160000000     0.0480372  
H626     H      0.776700000000     0.942930000000     0.627190000000     0.0439845  
H627     H      0.733200000000     0.975670000000     0.603870000000     0.0494707  
H628     H      0.793130000000     0.537180000000     0.637360000000     0.0477238  
H629     H      0.737540000000     0.004740000000     0.635370000000     0.0455905  
H630     H      0.833790000000     0.503750000000     0.663010000000     0.0391658  
H631     H      0.998560000000     0.792410000000     0.885440000000     0.0476543  
H632     H      0.030610000000     0.824110000000     0.923540000000     0.0460916  
H633     H      0.023020000000     0.728940000000     0.882240000000     0.0402208  
H634     H      0.560680000000     0.725850000000     0.925970000000     0.049308   
H635     H      0.567300000000     0.812580000000     0.903670000000     0.0433205  
H636     H      0.586820000000     0.755190000000     0.908550000000     0.0456935  
H637     H      0.023580000000     0.820730000000     0.864640000000     0.0372934  
H638     H      0.503770000000     0.805000000000     0.654770000000     0.0453258  
H639     H      0.464320000000     0.811160000000     0.613060000000     0.0461565  
H640     H      0.523500000000     0.738800000000     0.650480000000     0.0542189  
H641     H      0.987980000000     0.711230000000     0.612000000000     0.0534433  
H642     H      0.937400000000     0.783170000000     0.631620000000     0.0423315  
H643     H      0.952750000000     0.724650000000     0.633090000000     0.0475832  
H644     H      0.465700000000     0.809290000000     0.674550000000     0.0395656  
H645     H      0.646450000000     0.545480000000     0.757670000000     0.0518988  
H646     H      0.676770000000     0.529400000000     0.710750000000     0.0465895  
H647     H      0.646890000000     0.492930000000     0.800680000000     0.0510411  
H648     H      0.675560000000     0.948640000000     0.774030000000     0.0587836  
H649     H      0.649320000000     0.997250000000     0.702940000000     0.0508762  
H650     H      0.648020000000     0.949860000000     0.740700000000     0.054048   
H651     H      0.619020000000     0.540920000000     0.724780000000     0.0564822  
H652     H      0.891720000000     0.024990000000     0.824390000000     0.0420449  
H653     H      0.874440000000     0.973300000000     0.802740000000     0.0414812  
H654     H      0.887630000000     0.566260000000     0.781830000000     0.0411887  
H655     H      0.871580000000     0.544950000000     0.728650000000     0.0490019  
H656     H      0.907350000000     0.973270000000     0.774400000000     0.0412992  
H657     H      0.905940000000     0.518950000000     0.729030000000     0.0499073  
H658     H      0.925340000000     0.997790000000     0.824880000000     0.0475653  
H659     H      0.960710000000     0.904820000000     0.756290000000     0.0405303  
H660     H      0.973660000000     0.867460000000     0.798540000000     0.0442639  
H661     H      0.005740000000     0.902870000000     0.712160000000     0.0404012  
H662     H      0.548650000000     0.865820000000     0.727650000000     0.0492841  
H663     H      0.509460000000     0.889020000000     0.808840000000     0.0467953  
H664     H      0.557580000000     0.888600000000     0.763170000000     0.0562966  
H665     H      0.968690000000     0.927090000000     0.792190000000     0.0390482  
H666     H      0.027830000000     0.645930000000     0.833990000000     0.046267   
H667     H      0.979090000000     0.669080000000     0.810830000000     0.0458141  
H668     H      0.572040000000     0.651240000000     0.792240000000     0.0496842  
H669     H      0.553300000000     0.669570000000     0.738500000000     0.0565839  
H670     H      0.977020000000     0.638310000000     0.780790000000     0.0533656  
H671     H      0.524880000000     0.637340000000     0.737540000000     0.0630848  
H672     H      0.998660000000     0.614320000000     0.829670000000     0.0426409  
N1       N      0.353560000000     0.252200000000     0.502010000000    -0.165107   
N2       N      0.419880000000     0.247830000000     0.489140000000    -0.164861   
N3       N      0.339030000000     0.173990000000     0.538820000000    -0.102759   
N4       N      0.100680000000     0.288470000000     0.046170000000    -0.166742   
N5       N      0.161450000000     0.267840000000     0.026340000000    -0.162935   
N6       N      0.082630000000     0.233290000000     0.112270000000    -0.101628   
N7       N      0.290530000000     0.411490000000     0.505840000000    -0.167315   
N8       N      0.263740000000     0.354240000000     0.526160000000    -0.165734   
N9       N      0.344800000000     0.430400000000     0.073280000000    -0.102983   
N10      N      0.264730000000     0.101170000000     0.005370000000    -0.166652   
N11      N      0.247560000000     0.165350000000     0.000430000000    -0.165869   
N12      N      0.310500000000     0.091880000000     0.429960000000    -0.107318   
N13      N      0.261340000000     0.520200000000     0.348200000000    -0.166494   
N14      N      0.278820000000     0.503160000000     0.410390000000    -0.164389   
N15      N      0.193260000000     0.464570000000     0.335130000000    -0.105107   
N16      N      0.290150000000     0.976150000000     0.162950000000    -0.167144   
N17      N      0.277080000000     0.003470000000     0.103340000000    -0.165089   
N18      N      0.215530000000     0.431260000000     0.178380000000    -0.0992139  
N19      N      0.538440000000     0.272060000000     0.361060000000    -0.165645   
N20      N      0.544390000000     0.274550000000     0.428060000000    -0.165014   
N21      N      0.086870000000     0.201770000000     0.342080000000    -0.10181    
N22      N      0.986390000000     0.262600000000     0.175990000000    -0.164771   
N23      N      0.977490000000     0.261600000000     0.109280000000    -0.163858   
N24      N      0.493350000000     0.177500000000     0.192670000000    -0.100885   
N25      N      0.116440000000     0.505050000000     0.261890000000    -0.163372   
N26      N      0.179220000000     0.489400000000     0.243020000000    -0.162776   
N27      N      0.094280000000     0.432500000000     0.306260000000    -0.101419   
N28      N      0.426650000000     0.034490000000     0.288420000000    -0.166684   
N29      N      0.371020000000     0.007150000000     0.263990000000    -0.167274   
N30      N      0.439680000000     0.101690000000     0.232630000000    -0.0995906  
N31      N      0.005100000000     0.429250000000     0.255440000000    -0.166161   
N32      N      0.013430000000     0.363720000000     0.265310000000    -0.163415   
N33      N      0.072530000000     0.446620000000     0.200670000000    -0.0991279  
N34      N      0.538110000000     0.113860000000     0.296150000000    -0.165191   
N35      N      0.514380000000     0.171750000000     0.272990000000    -0.160382   
N36      N      0.107110000000     0.101210000000     0.241370000000    -0.105459   
N37      N      0.353560000000     0.252200000000     0.002010000000    -0.167124   
N38      N      0.419880000000     0.247830000000     0.989140000000    -0.163376   
N39      N      0.339030000000     0.173990000000     0.038820000000    -0.103238   
N40      N      0.100680000000     0.288470000000     0.546170000000    -0.166302   
N41      N      0.161450000000     0.267840000000     0.526340000000    -0.164344   
N42      N      0.082630000000     0.233290000000     0.612270000000    -0.101592   
N43      N      0.290530000000     0.411490000000     0.005850000000    -0.169576   
N44      N      0.263740000000     0.354240000000     0.026160000000    -0.164305   
N45      N      0.344800000000     0.430400000000     0.573280000000    -0.102863   
N46      N      0.264730000000     0.101170000000     0.505370000000    -0.165043   
N47      N      0.247560000000     0.165350000000     0.500430000000    -0.164722   
N48      N      0.310500000000     0.091880000000     0.929960000000    -0.106911   
N49      N      0.261340000000     0.520200000000     0.848200000000    -0.16648    
N50      N      0.278820000000     0.503160000000     0.910390000000    -0.164128   
N51      N      0.193260000000     0.464570000000     0.835130000000    -0.104999   
N52      N      0.290150000000     0.976150000000     0.662950000000    -0.167148   
N53      N      0.277080000000     0.003470000000     0.603340000000    -0.165107   
N54      N      0.215530000000     0.431260000000     0.678380000000    -0.0991928  
N55      N      0.538440000000     0.272060000000     0.861060000000    -0.165631   
N56      N      0.544390000000     0.274550000000     0.928060000000    -0.164729   
N57      N      0.086870000000     0.201770000000     0.842080000000    -0.101697   
N58      N      0.986390000000     0.262600000000     0.675990000000    -0.164777   
N59      N      0.977490000000     0.261600000000     0.609280000000    -0.163872   
N60      N      0.493350000000     0.177500000000     0.692670000000    -0.100858   
N61      N      0.116440000000     0.505050000000     0.761890000000    -0.163342   
N62      N      0.179220000000     0.489400000000     0.743020000000    -0.162775   
N63      N      0.094280000000     0.432500000000     0.806260000000    -0.101306   
N64      N      0.426650000000     0.034490000000     0.788420000000    -0.16665    
N65      N      0.371020000000     0.007150000000     0.763990000000    -0.167282   
N66      N      0.439680000000     0.101690000000     0.732630000000    -0.0995636  
N67      N      0.005100000000     0.429250000000     0.755440000000    -0.166148   
N68      N      0.013430000000     0.363720000000     0.765310000000    -0.16342    
N69      N      0.072530000000     0.446620000000     0.700670000000    -0.0990661  
N70      N      0.538110000000     0.113860000000     0.796150000000    -0.165192   
N71      N      0.514380000000     0.171750000000     0.772990000000    -0.160356   
N72      N      0.107110000000     0.101210000000     0.741370000000    -0.105431   
N73      N      0.353560000000     0.752200000000     0.502010000000    -0.165097   
N74      N      0.419880000000     0.747830000000     0.489140000000    -0.164851   
N75      N      0.339030000000     0.673990000000     0.538820000000    -0.102729   
N76      N      0.100680000000     0.788470000000     0.046170000000    -0.166713   
N77      N      0.161450000000     0.767840000000     0.026340000000    -0.162936   
N78      N      0.082630000000     0.733290000000     0.112270000000    -0.101601   
N79      N      0.290530000000     0.911490000000     0.505840000000    -0.167126   
N80      N      0.263740000000     0.854240000000     0.526160000000    -0.165716   
N81      N      0.344800000000     0.930400000000     0.073280000000    -0.102475   
N82      N      0.264730000000     0.601170000000     0.005370000000    -0.166655   
N83      N      0.247560000000     0.665350000000     0.000430000000    -0.165864   
N84      N      0.310500000000     0.591880000000     0.429960000000    -0.107264   
N85      N      0.261340000000     0.020200000000     0.348200000000    -0.165588   
N86      N      0.278820000000     0.003160000000     0.410390000000    -0.166057   
N87      N      0.193260000000     0.964570000000     0.335130000000    -0.105462   
N88      N      0.290150000000     0.476150000000     0.162950000000    -0.166414   
N89      N      0.277080000000     0.503470000000     0.103340000000    -0.163749   
N90      N      0.215530000000     0.931260000000     0.178380000000    -0.0991195  
N91      N      0.538440000000     0.772060000000     0.361060000000    -0.165648   
N92      N      0.544390000000     0.774550000000     0.428060000000    -0.164999   
N93      N      0.086870000000     0.701770000000     0.342080000000    -0.101796   
N94      N      0.986390000000     0.762600000000     0.175990000000    -0.164772   
N95      N      0.977490000000     0.761600000000     0.109280000000    -0.163849   
N96      N      0.493350000000     0.677500000000     0.192670000000    -0.100829   
N97      N      0.116440000000     0.005050000000     0.261890000000    -0.164974   
N98      N      0.179220000000     0.989400000000     0.243020000000    -0.161426   
N99      N      0.094280000000     0.932500000000     0.306260000000    -0.101081   
N100     N      0.426650000000     0.534500000000     0.288420000000    -0.167292   
N101     N      0.371020000000     0.507150000000     0.263990000000    -0.166046   
N102     N      0.439680000000     0.601690000000     0.232630000000    -0.09952    
N103     N      0.005100000000     0.929250000000     0.255440000000    -0.165958   
N104     N      0.013430000000     0.863720000000     0.265310000000    -0.163405   
N105     N      0.072530000000     0.946620000000     0.200670000000    -0.0985909  
N106     N      0.538110000000     0.613860000000     0.296150000000    -0.165189   
N107     N      0.514380000000     0.671750000000     0.272990000000    -0.160383   
N108     N      0.107110000000     0.601210000000     0.241370000000    -0.105391   
N109     N      0.353560000000     0.752200000000     0.002010000000    -0.167109   
N110     N      0.419880000000     0.747830000000     0.989140000000    -0.163369   
N111     N      0.339030000000     0.673990000000     0.038820000000    -0.103208   
N112     N      0.100680000000     0.788470000000     0.546170000000    -0.166274   
N113     N      0.161450000000     0.767840000000     0.526340000000    -0.16434    
N114     N      0.082630000000     0.733290000000     0.612270000000    -0.101564   
N115     N      0.290530000000     0.911490000000     0.005850000000    -0.169375   
N116     N      0.263740000000     0.854240000000     0.026160000000    -0.164294   
N117     N      0.344800000000     0.930400000000     0.573280000000    -0.102356   
N118     N      0.264730000000     0.601170000000     0.505370000000    -0.165048   
N119     N      0.247560000000     0.665350000000     0.500430000000    -0.164718   
N120     N      0.310500000000     0.591880000000     0.929960000000    -0.106858   
N121     N      0.261340000000     0.020200000000     0.848200000000    -0.165579   
N122     N      0.278820000000     0.003160000000     0.910390000000    -0.165786   
N123     N      0.193260000000     0.964570000000     0.835130000000    -0.105352   
N124     N      0.290150000000     0.476150000000     0.662950000000    -0.16642    
N125     N      0.277080000000     0.503470000000     0.603340000000    -0.16377    
N126     N      0.215530000000     0.931260000000     0.678380000000    -0.0990988  
N127     N      0.538440000000     0.772060000000     0.861060000000    -0.165635   
N128     N      0.544390000000     0.774550000000     0.928060000000    -0.164714   
N129     N      0.086870000000     0.701770000000     0.842080000000    -0.101683   
N130     N      0.986390000000     0.762600000000     0.675990000000    -0.164778   
N131     N      0.977490000000     0.761600000000     0.609280000000    -0.163862   
N132     N      0.493350000000     0.677500000000     0.692670000000    -0.100802   
N133     N      0.116440000000     0.005050000000     0.761890000000    -0.164938   
N134     N      0.179220000000     0.989400000000     0.743020000000    -0.161429   
N135     N      0.094280000000     0.932500000000     0.806260000000    -0.10097    
N136     N      0.426650000000     0.534500000000     0.788420000000    -0.167255   
N137     N      0.371020000000     0.507150000000     0.763990000000    -0.166059   
N138     N      0.439680000000     0.601690000000     0.732630000000    -0.0994931  
N139     N      0.005100000000     0.929250000000     0.755440000000    -0.165946   
N140     N      0.013430000000     0.863720000000     0.765310000000    -0.16341    
N141     N      0.072530000000     0.946620000000     0.700670000000    -0.0985312  
N142     N      0.538110000000     0.613860000000     0.796150000000    -0.16519    
N143     N      0.514380000000     0.671750000000     0.772990000000    -0.160357   
N144     N      0.107110000000     0.601210000000     0.741370000000    -0.105363   
N145     N      0.853560000000     0.252200000000     0.502010000000    -0.165107   
N146     N      0.919880000000     0.247830000000     0.489140000000    -0.164854   
N147     N      0.839030000000     0.173990000000     0.538820000000    -0.102757   
N148     N      0.600680000000     0.288470000000     0.046170000000    -0.166728   
N149     N      0.661450000000     0.267840000000     0.026340000000    -0.162933   
N150     N      0.582630000000     0.233290000000     0.112270000000    -0.101621   
N151     N      0.790530000000     0.411490000000     0.505840000000    -0.167271   
N152     N      0.763740000000     0.354240000000     0.526160000000    -0.165737   
N153     N      0.844800000000     0.430400000000     0.073280000000    -0.102977   
N154     N      0.764730000000     0.101170000000     0.005370000000    -0.166651   
N155     N      0.747560000000     0.165350000000     0.000430000000    -0.165869   
N156     N      0.810500000000     0.091880000000     0.429960000000    -0.107317   
N157     N      0.761340000000     0.520200000000     0.348200000000    -0.166494   
N158     N      0.778820000000     0.503160000000     0.410390000000    -0.164388   
N159     N      0.693260000000     0.464570000000     0.335130000000    -0.105108   
N160     N      0.790150000000     0.976150000000     0.162950000000    -0.167137   
N161     N      0.777080000000     0.003470000000     0.103340000000    -0.165112   
N162     N      0.715530000000     0.431260000000     0.178380000000    -0.0992168  
N163     N      0.038440000000     0.272060000000     0.361060000000    -0.165625   
N164     N      0.044390000000     0.274550000000     0.428060000000    -0.165021   
N165     N      0.586870000000     0.201770000000     0.342080000000    -0.10181    
N166     N      0.486390000000     0.262600000000     0.175990000000    -0.164746   
N167     N      0.477490000000     0.261600000000     0.109280000000    -0.16386    
N168     N      0.993350000000     0.177500000000     0.192670000000    -0.100855   
N169     N      0.616440000000     0.505050000000     0.261890000000    -0.163373   
N170     N      0.679220000000     0.489400000000     0.243020000000    -0.162839   
N171     N      0.594280000000     0.432500000000     0.306260000000    -0.101417   
N172     N      0.926650000000     0.034490000000     0.288420000000    -0.166684   
N173     N      0.871020000000     0.007150000000     0.263990000000    -0.167268   
N174     N      0.939680000000     0.101690000000     0.232630000000    -0.0995771  
N175     N      0.505100000000     0.429250000000     0.255440000000    -0.166123   
N176     N      0.513430000000     0.363720000000     0.265310000000    -0.163378   
N177     N      0.572530000000     0.446620000000     0.200670000000    -0.0991247  
N178     N      0.038110000000     0.113860000000     0.296150000000    -0.165175   
N179     N      0.014380000000     0.171750000000     0.272990000000    -0.160415   
N180     N      0.607110000000     0.101210000000     0.241370000000    -0.105462   
N181     N      0.853560000000     0.252200000000     0.002010000000    -0.167124   
N182     N      0.919880000000     0.247830000000     0.989140000000    -0.163369   
N183     N      0.839030000000     0.173990000000     0.038820000000    -0.103236   
N184     N      0.600680000000     0.288470000000     0.546170000000    -0.166288   
N185     N      0.661450000000     0.267840000000     0.526340000000    -0.164341   
N186     N      0.582630000000     0.233290000000     0.612270000000    -0.101585   
N187     N      0.790530000000     0.411490000000     0.005850000000    -0.169531   
N188     N      0.763740000000     0.354240000000     0.026160000000    -0.164308   
N189     N      0.844800000000     0.430400000000     0.573280000000    -0.102857   
N190     N      0.764730000000     0.101170000000     0.505370000000    -0.165043   
N191     N      0.747560000000     0.165350000000     0.500430000000    -0.164722   
N192     N      0.810500000000     0.091880000000     0.929960000000    -0.10691    
N193     N      0.761340000000     0.520200000000     0.848200000000    -0.16648    
N194     N      0.778820000000     0.503160000000     0.910390000000    -0.164127   
N195     N      0.693260000000     0.464570000000     0.835130000000    -0.105      
N196     N      0.790150000000     0.976150000000     0.662950000000    -0.167141   
N197     N      0.777080000000     0.003470000000     0.603340000000    -0.16513    
N198     N      0.715530000000     0.431260000000     0.678380000000    -0.0991957  
N199     N      0.038440000000     0.272060000000     0.861060000000    -0.165612   
N200     N      0.044390000000     0.274550000000     0.928060000000    -0.164735   
N201     N      0.586870000000     0.201770000000     0.842080000000    -0.101698   
N202     N      0.486390000000     0.262600000000     0.675990000000    -0.164752   
N203     N      0.477490000000     0.261600000000     0.609280000000    -0.163874   
N204     N      0.993350000000     0.177500000000     0.692670000000    -0.100828   
N205     N      0.616440000000     0.505050000000     0.761890000000    -0.163343   
N206     N      0.679220000000     0.489400000000     0.743020000000    -0.162838   
N207     N      0.594280000000     0.432500000000     0.806260000000    -0.101305   
N208     N      0.926650000000     0.034490000000     0.788420000000    -0.16665    
N209     N      0.871020000000     0.007150000000     0.763990000000    -0.167275   
N210     N      0.939680000000     0.101690000000     0.732630000000    -0.0995502  
N211     N      0.505100000000     0.429250000000     0.755440000000    -0.16611    
N212     N      0.513430000000     0.363720000000     0.765310000000    -0.163384   
N213     N      0.572530000000     0.446620000000     0.700670000000    -0.0990629  
N214     N      0.038110000000     0.113860000000     0.796150000000    -0.165177   
N215     N      0.014380000000     0.171750000000     0.772990000000    -0.160389   
N216     N      0.607110000000     0.101210000000     0.741370000000    -0.105434   
N217     N      0.853560000000     0.752200000000     0.502010000000    -0.165097   
N218     N      0.919880000000     0.747830000000     0.489140000000    -0.164843   
N219     N      0.839030000000     0.673990000000     0.538820000000    -0.102727   
N220     N      0.600680000000     0.788470000000     0.046170000000    -0.166699   
N221     N      0.661450000000     0.767840000000     0.026340000000    -0.162934   
N222     N      0.582630000000     0.733290000000     0.112270000000    -0.101594   
N223     N      0.790530000000     0.911490000000     0.505840000000    -0.167082   
N224     N      0.763740000000     0.854240000000     0.526160000000    -0.165719   
N225     N      0.844800000000     0.930400000000     0.073280000000    -0.102469   
N226     N      0.764730000000     0.601170000000     0.005370000000    -0.166654   
N227     N      0.747560000000     0.665350000000     0.000430000000    -0.165864   
N228     N      0.810500000000     0.591880000000     0.429960000000    -0.107262   
N229     N      0.761340000000     0.020200000000     0.348200000000    -0.165589   
N230     N      0.778820000000     0.003160000000     0.410390000000    -0.166056   
N231     N      0.693260000000     0.964570000000     0.335130000000    -0.105463   
N232     N      0.790150000000     0.476150000000     0.162950000000    -0.166407   
N233     N      0.777080000000     0.503470000000     0.103340000000    -0.163772   
N234     N      0.715530000000     0.931260000000     0.178380000000    -0.0991224  
N235     N      0.038440000000     0.772060000000     0.361060000000    -0.165629   
N236     N      0.044390000000     0.774550000000     0.428060000000    -0.165005   
N237     N      0.586870000000     0.701770000000     0.342080000000    -0.101796   
N238     N      0.486390000000     0.762600000000     0.175990000000    -0.164747   
N239     N      0.477490000000     0.761600000000     0.109280000000    -0.16385    
N240     N      0.993350000000     0.677500000000     0.192670000000    -0.100799   
N241     N      0.616440000000     0.005050000000     0.261890000000    -0.164974   
N242     N      0.679220000000     0.989400000000     0.243020000000    -0.161489   
N243     N      0.594280000000     0.932500000000     0.306260000000    -0.101079   
N244     N      0.926650000000     0.534500000000     0.288420000000    -0.167291   
N245     N      0.871020000000     0.507150000000     0.263990000000    -0.16604    
N246     N      0.939680000000     0.601690000000     0.232630000000    -0.0995066  
N247     N      0.505100000000     0.929250000000     0.255440000000    -0.16592    
N248     N      0.513430000000     0.863720000000     0.265310000000    -0.163368   
N249     N      0.572530000000     0.946620000000     0.200670000000    -0.0985877  
N250     N      0.038110000000     0.613860000000     0.296150000000    -0.165174   
N251     N      0.014380000000     0.671750000000     0.272990000000    -0.160416   
N252     N      0.607110000000     0.601210000000     0.241370000000    -0.105393   
N253     N      0.853560000000     0.752200000000     0.002010000000    -0.167109   
N254     N      0.919880000000     0.747830000000     0.989140000000    -0.163362   
N255     N      0.839030000000     0.673990000000     0.038820000000    -0.103206   
N256     N      0.600680000000     0.788470000000     0.546170000000    -0.166261   
N257     N      0.661450000000     0.767840000000     0.526340000000    -0.164338   
N258     N      0.582630000000     0.733290000000     0.612270000000    -0.101557   
N259     N      0.790530000000     0.911490000000     0.005850000000    -0.16933    
N260     N      0.763740000000     0.854240000000     0.026160000000    -0.164296   
N261     N      0.844800000000     0.930400000000     0.573280000000    -0.102351   
N262     N      0.764730000000     0.601170000000     0.505370000000    -0.165047   
N263     N      0.747560000000     0.665350000000     0.500430000000    -0.164718   
N264     N      0.810500000000     0.591880000000     0.929960000000    -0.106856   
N265     N      0.761340000000     0.020200000000     0.848200000000    -0.165579   
N266     N      0.778820000000     0.003160000000     0.910390000000    -0.165785   
N267     N      0.693260000000     0.964570000000     0.835130000000    -0.105354   
N268     N      0.790150000000     0.476150000000     0.662950000000    -0.166413   
N269     N      0.777080000000     0.503470000000     0.603340000000    -0.163792   
N270     N      0.715530000000     0.931260000000     0.678380000000    -0.0991017  
N271     N      0.038440000000     0.772060000000     0.861060000000    -0.165615   
N272     N      0.044390000000     0.774550000000     0.928060000000    -0.16472    
N273     N      0.586870000000     0.701770000000     0.842080000000    -0.101684   
N274     N      0.486390000000     0.762600000000     0.675990000000    -0.164753   
N275     N      0.477490000000     0.761600000000     0.609280000000    -0.163864   
N276     N      0.993350000000     0.677500000000     0.692670000000    -0.100772   
N277     N      0.616440000000     0.005050000000     0.761890000000    -0.164938   
N278     N      0.679220000000     0.989400000000     0.743020000000    -0.161492   
N279     N      0.594280000000     0.932500000000     0.806260000000    -0.100968   
N280     N      0.926650000000     0.534500000000     0.788420000000    -0.167254   
N281     N      0.871020000000     0.507150000000     0.763990000000    -0.166053   
N282     N      0.939680000000     0.601690000000     0.732630000000    -0.0994797  
N283     N      0.505100000000     0.929250000000     0.755440000000    -0.165908   
N284     N      0.513430000000     0.863720000000     0.765310000000    -0.163374   
N285     N      0.572530000000     0.946620000000     0.700670000000    -0.098528   
N286     N      0.038110000000     0.613860000000     0.796150000000    -0.165175   
N287     N      0.014380000000     0.671750000000     0.772990000000    -0.16039    
N288     N      0.607110000000     0.601210000000     0.741370000000    -0.105366   
O1       O      0.528830000000     0.074080000000     0.259980000000    -0.391302   
O2       O      0.512150000000     0.481040000000     0.239450000000    -0.38979    
O3       O      0.471890000000     0.535240000000     0.256610000000    -0.393456   
O4       O      0.067380000000     0.021150000000     0.243370000000    -0.393244   
O5       O      0.071840000000     0.006920000000     0.294740000000    -0.388789   
O6       O      0.476290000000     0.521870000000     0.308210000000    -0.399994   
O7       O      0.014410000000     0.468920000000     0.291580000000    -0.393355   
O8       O      0.031720000000     0.062010000000     0.312100000000    -0.390837   
O9       O      0.487490000000     0.219440000000     0.278860000000    -0.388328   
O10      O      0.487270000000     0.316470000000     0.274400000000    -0.395493   
O11      O      0.473580000000     0.266590000000     0.229030000000    -0.390943   
O12      O      0.499940000000     0.270640000000     0.322370000000    -0.400798   
O13      O      0.051850000000     0.268900000000     0.307950000000    -0.38745    
O14      O      0.025410000000     0.264610000000     0.214320000000    -0.394983   
O15      O      0.038500000000     0.315590000000     0.258060000000    -0.39541    
O16      O      0.038770000000     0.219340000000     0.262650000000    -0.394905   
O17      O      0.324810000000     0.477370000000     0.268540000000    -0.395454   
O18      O      0.228080000000     0.468070000000     0.256540000000    -0.389427   
O19      O      0.282920000000     0.461270000000     0.215130000000    -0.388893   
O20      O      0.268550000000     0.483380000000     0.308660000000    -0.39427    
O21      O      0.268050000000     0.035100000000     0.295850000000    -0.39249    
O22      O      0.281200000000     0.012930000000     0.202050000000    -0.401855   
O23      O      0.225460000000     0.019280000000     0.242320000000    -0.39901    
O24      O      0.321710000000     0.028250000000     0.253210000000    -0.402364   
O25      O      0.303620000000     0.012120000000     0.055760000000    -0.390916   
O26      O      0.305570000000     0.008840000000     0.458190000000    -0.389866   
O27      O      0.298140000000     0.057890000000     0.504160000000    -0.389929   
O28      O      0.311350000000     0.462080000000     0.009720000000    -0.387194   
O29      O      0.258230000000     0.455230000000     0.004490000000    -0.404396   
O30      O      0.245000000000     0.050470000000     0.508780000000    -0.396222   
O31      O      0.252020000000     0.503290000000     0.458180000000    -0.398934   
O32      O      0.251240000000     0.500210000000     0.054990000000    -0.399252   
O33      O      0.000170000000     0.239310000000     0.064630000000    -0.395832   
O34      O      0.032600000000     0.245000000000     0.473110000000    -0.394913   
O35      O      0.060980000000     0.252110000000     0.535610000000    -0.391212   
O36      O      0.470620000000     0.232000000000     0.003930000000    -0.399088   
O37      O      0.459350000000     0.283940000000     0.001340000000    -0.40043    
O38      O      0.049790000000     0.304070000000     0.532440000000    -0.395011   
O39      O      0.520110000000     0.296640000000     0.472000000000    -0.399451   
O40      O      0.488350000000     0.291100000000     0.063900000000    -0.392773   
O41      O      0.205880000000     0.266440000000     0.493760000000    -0.395229   
O42      O      0.303080000000     0.262500000000     0.482340000000    -0.395308   
O43      O      0.252440000000     0.215970000000     0.480980000000    -0.398214   
O44      O      0.256260000000     0.310840000000     0.494580000000    -0.405133   
O45      O      0.267640000000     0.303310000000     0.046340000000    -0.389351   
O46      O      0.252600000000     0.208120000000     0.033940000000    -0.390673   
O47      O      0.308470000000     0.248770000000     0.033760000000    -0.387638   
O48      O      0.212150000000     0.260600000000     0.046630000000    -0.392936   
O49      O      0.528830000000     0.074080000000     0.759990000000    -0.391432   
O50      O      0.512150000000     0.481040000000     0.739450000000    -0.38976    
O51      O      0.471890000000     0.535240000000     0.756610000000    -0.393438   
O52      O      0.067380000000     0.021150000000     0.743370000000    -0.393136   
O53      O      0.071840000000     0.006920000000     0.794740000000    -0.388811   
O54      O      0.476290000000     0.521870000000     0.808210000000    -0.399886   
O55      O      0.014410000000     0.468920000000     0.791580000000    -0.393302   
O56      O      0.031720000000     0.062010000000     0.812100000000    -0.390757   
O57      O      0.487490000000     0.219440000000     0.778870000000    -0.388269   
O58      O      0.487270000000     0.316470000000     0.774390000000    -0.395518   
O59      O      0.473580000000     0.266590000000     0.729030000000    -0.390951   
O60      O      0.499940000000     0.270640000000     0.822370000000    -0.400748   
O61      O      0.051850000000     0.268900000000     0.807950000000    -0.387435   
O62      O      0.025410000000     0.264610000000     0.714320000000    -0.394988   
O63      O      0.038500000000     0.315590000000     0.758060000000    -0.395421   
O64      O      0.038770000000     0.219340000000     0.762650000000    -0.394892   
O65      O      0.324810000000     0.477370000000     0.768540000000    -0.395455   
O66      O      0.228080000000     0.468070000000     0.756540000000    -0.38943    
O67      O      0.282920000000     0.461270000000     0.715130000000    -0.388904   
O68      O      0.268550000000     0.483380000000     0.808660000000    -0.394245   
O69      O      0.268050000000     0.035100000000     0.795850000000    -0.392461   
O70      O      0.281200000000     0.012930000000     0.702050000000    -0.401859   
O71      O      0.225460000000     0.019280000000     0.742320000000    -0.398997   
O72      O      0.321710000000     0.028250000000     0.753220000000    -0.402402   
O73      O      0.303620000000     0.012120000000     0.555760000000    -0.391338   
O74      O      0.305570000000     0.008840000000     0.958190000000    -0.387279   
O75      O      0.298140000000     0.057890000000     0.004160000000    -0.39079    
O76      O      0.311350000000     0.462080000000     0.509720000000    -0.386786   
O77      O      0.258230000000     0.455230000000     0.504480000000    -0.403569   
O78      O      0.245000000000     0.050470000000     0.008780000000    -0.396566   
O79      O      0.252020000000     0.503290000000     0.958180000000    -0.396402   
O80      O      0.251240000000     0.500210000000     0.554990000000    -0.39977    
O81      O      0.000170000000     0.239310000000     0.564630000000    -0.396175   
O82      O      0.032600000000     0.245000000000     0.973110000000    -0.392341   
O83      O      0.060980000000     0.252110000000     0.035610000000    -0.391557   
O84      O      0.470620000000     0.232000000000     0.503930000000    -0.394787   
O85      O      0.459350000000     0.283940000000     0.501340000000    -0.395824   
O86      O      0.049790000000     0.304070000000     0.032450000000    -0.395343   
O87      O      0.520110000000     0.296640000000     0.972000000000    -0.396818   
O88      O      0.488350000000     0.291100000000     0.563900000000    -0.393092   
O89      O      0.205880000000     0.266440000000     0.993760000000    -0.391664   
O90      O      0.303080000000     0.262500000000     0.982340000000    -0.392106   
O91      O      0.252440000000     0.215970000000     0.980980000000    -0.394904   
O92      O      0.256260000000     0.310840000000     0.994580000000    -0.401609   
O93      O      0.267640000000     0.303310000000     0.546340000000    -0.390476   
O94      O      0.252600000000     0.208120000000     0.533940000000    -0.391676   
O95      O      0.308470000000     0.248770000000     0.533760000000    -0.3886     
O96      O      0.212150000000     0.260600000000     0.546630000000    -0.394115   
O97      O      0.528830000000     0.574080000000     0.259980000000    -0.39164    
O98      O      0.512150000000     0.981040000000     0.239450000000    -0.387726   
O99      O      0.471890000000     0.035240000000     0.256610000000    -0.393525   
O100     O      0.067380000000     0.521150000000     0.243370000000    -0.392906   
O101     O      0.071840000000     0.506920000000     0.294740000000    -0.388071   
O102     O      0.476290000000     0.021870000000     0.308210000000    -0.4004     
O103     O      0.014410000000     0.968920000000     0.291580000000    -0.391437   
O104     O      0.031720000000     0.562010000000     0.312100000000    -0.391084   
O105     O      0.487490000000     0.719440000000     0.278860000000    -0.388334   
O106     O      0.487270000000     0.816470000000     0.274400000000    -0.395472   
O107     O      0.473580000000     0.766590000000     0.229030000000    -0.39094    
O108     O      0.499940000000     0.770640000000     0.322370000000    -0.400791   
O109     O      0.051850000000     0.768900000000     0.307950000000    -0.387448   
O110     O      0.025410000000     0.764610000000     0.214320000000    -0.394979   
O111     O      0.038500000000     0.815590000000     0.258060000000    -0.3954     
O112     O      0.038770000000     0.719340000000     0.262650000000    -0.394908   
O113     O      0.324810000000     0.977370000000     0.268540000000    -0.393125   
O114     O      0.228080000000     0.968070000000     0.256540000000    -0.390083   
O115     O      0.282920000000     0.961270000000     0.215130000000    -0.389582   
O116     O      0.268550000000     0.983380000000     0.308660000000    -0.391782   
O117     O      0.268050000000     0.535100000000     0.295850000000    -0.39316    
O118     O      0.281200000000     0.512930000000     0.202050000000    -0.399417   
O119     O      0.225460000000     0.519280000000     0.242320000000    -0.396762   
O120     O      0.321710000000     0.528250000000     0.253210000000    -0.403017   
O121     O      0.303620000000     0.512120000000     0.055760000000    -0.390634   
O122     O      0.305570000000     0.508840000000     0.458190000000    -0.389559   
O123     O      0.298140000000     0.557890000000     0.504160000000    -0.390255   
O124     O      0.311350000000     0.962080000000     0.009720000000    -0.385209   
O125     O      0.258230000000     0.955230000000     0.004490000000    -0.402481   
O126     O      0.245000000000     0.550470000000     0.508780000000    -0.396495   
O127     O      0.252020000000     0.003290000000     0.458180000000    -0.399564   
O128     O      0.251240000000     0.000220000000     0.054990000000    -0.399968   
O129     O      0.000170000000     0.739310000000     0.064630000000    -0.395811   
O130     O      0.032600000000     0.745000000000     0.473110000000    -0.394892   
O131     O      0.060980000000     0.752110000000     0.535610000000    -0.391196   
O132     O      0.470620000000     0.732000000000     0.003930000000    -0.399046   
O133     O      0.459350000000     0.783940000000     0.001340000000    -0.40038    
O134     O      0.049790000000     0.804070000000     0.532440000000    -0.394932   
O135     O      0.520110000000     0.796640000000     0.472000000000    -0.399397   
O136     O      0.488350000000     0.791100000000     0.063900000000    -0.392728   
O137     O      0.205880000000     0.766440000000     0.493760000000    -0.395219   
O138     O      0.303080000000     0.762510000000     0.482340000000    -0.395262   
O139     O      0.252440000000     0.715970000000     0.480980000000    -0.398221   
O140     O      0.256260000000     0.810840000000     0.494580000000    -0.405107   
O141     O      0.267640000000     0.803310000000     0.046340000000    -0.389341   
O142     O      0.252600000000     0.708120000000     0.033940000000    -0.390677   
O143     O      0.308470000000     0.748770000000     0.033760000000    -0.387626   
O144     O      0.212150000000     0.760600000000     0.046630000000    -0.392933   
O145     O      0.528830000000     0.574080000000     0.759990000000    -0.39177    
O146     O      0.512150000000     0.981040000000     0.739450000000    -0.387703   
O147     O      0.471890000000     0.035240000000     0.756610000000    -0.393507   
O148     O      0.067380000000     0.521150000000     0.743370000000    -0.392799   
O149     O      0.071840000000     0.506920000000     0.794740000000    -0.388096   
O150     O      0.476290000000     0.021870000000     0.808210000000    -0.400291   
O151     O      0.014410000000     0.968920000000     0.791580000000    -0.391392   
O152     O      0.031720000000     0.562010000000     0.812100000000    -0.391003   
O153     O      0.487490000000     0.719440000000     0.778870000000    -0.388275   
O154     O      0.487270000000     0.816470000000     0.774390000000    -0.395498   
O155     O      0.473580000000     0.766590000000     0.729030000000    -0.390947   
O156     O      0.499940000000     0.770640000000     0.822370000000    -0.400742   
O157     O      0.051850000000     0.768900000000     0.807950000000    -0.387433   
O158     O      0.025410000000     0.764610000000     0.714320000000    -0.394984   
O159     O      0.038500000000     0.815590000000     0.758060000000    -0.395412   
O160     O      0.038770000000     0.719340000000     0.762650000000    -0.394895   
O161     O      0.324810000000     0.977370000000     0.768540000000    -0.393135   
O162     O      0.228080000000     0.968070000000     0.756540000000    -0.390083   
O163     O      0.282920000000     0.961270000000     0.715130000000    -0.389592   
O164     O      0.268550000000     0.983380000000     0.808660000000    -0.391771   
O165     O      0.268050000000     0.535100000000     0.795850000000    -0.393128   
O166     O      0.281200000000     0.512930000000     0.702050000000    -0.399428   
O167     O      0.225460000000     0.519280000000     0.742320000000    -0.396756   
O168     O      0.321710000000     0.528250000000     0.753220000000    -0.403052   
O169     O      0.303620000000     0.512120000000     0.555760000000    -0.391056   
O170     O      0.305570000000     0.508840000000     0.958190000000    -0.386974   
O171     O      0.298140000000     0.557890000000     0.004160000000    -0.391116   
O172     O      0.311350000000     0.962080000000     0.509720000000    -0.384804   
O173     O      0.258230000000     0.955230000000     0.504480000000    -0.40166    
O174     O      0.245000000000     0.550470000000     0.008780000000    -0.396839   
O175     O      0.252020000000     0.003290000000     0.958180000000    -0.397027   
O176     O      0.251240000000     0.000220000000     0.554990000000    -0.400485   
O177     O      0.000170000000     0.739310000000     0.564630000000    -0.396153   
O178     O      0.032600000000     0.745000000000     0.973110000000    -0.392327   
O179     O      0.060980000000     0.752110000000     0.035610000000    -0.391541   
O180     O      0.470620000000     0.732000000000     0.503930000000    -0.394758   
O181     O      0.459350000000     0.783940000000     0.501340000000    -0.395788   
O182     O      0.049790000000     0.804070000000     0.032450000000    -0.395264   
O183     O      0.520110000000     0.796640000000     0.972000000000    -0.396774   
O184     O      0.488350000000     0.791100000000     0.563900000000    -0.393046   
O185     O      0.205880000000     0.766440000000     0.993760000000    -0.391664   
O186     O      0.303080000000     0.762510000000     0.982340000000    -0.39207    
O187     O      0.252440000000     0.715970000000     0.980980000000    -0.394919   
O188     O      0.256260000000     0.810840000000     0.994580000000    -0.401597   
O189     O      0.267640000000     0.803310000000     0.546340000000    -0.390463   
O190     O      0.252600000000     0.708120000000     0.533940000000    -0.391678   
O191     O      0.308470000000     0.748770000000     0.533760000000    -0.388584   
O192     O      0.212150000000     0.760600000000     0.546630000000    -0.394108   
O193     O      0.028840000000     0.074080000000     0.259980000000    -0.391308   
O194     O      0.012150000000     0.481040000000     0.239450000000    -0.389798   
O195     O      0.971890000000     0.535240000000     0.256610000000    -0.3934     
O196     O      0.567380000000     0.021150000000     0.243370000000    -0.393266   
O197     O      0.571840000000     0.006920000000     0.294740000000    -0.388803   
O198     O      0.976290000000     0.521870000000     0.308210000000    -0.399931   
O199     O      0.514410000000     0.468920000000     0.291580000000    -0.39334    
O200     O      0.531720000000     0.062010000000     0.312100000000    -0.390821   
O201     O      0.987490000000     0.219440000000     0.278860000000    -0.388253   
O202     O      0.987270000000     0.316470000000     0.274400000000    -0.395416   
O203     O      0.973580000000     0.266590000000     0.229030000000    -0.390965   
O204     O      0.999940000000     0.270640000000     0.322370000000    -0.400711   
O205     O      0.551850000000     0.268900000000     0.307950000000    -0.387477   
O206     O      0.525410000000     0.264610000000     0.214320000000    -0.394905   
O207     O      0.538500000000     0.315590000000     0.258060000000    -0.395432   
O208     O      0.538770000000     0.219340000000     0.262650000000    -0.394926   
O209     O      0.824810000000     0.477370000000     0.268540000000    -0.395452   
O210     O      0.728080000000     0.468070000000     0.256540000000    -0.389345   
O211     O      0.782920000000     0.461270000000     0.215130000000    -0.388891   
O212     O      0.768550000000     0.483380000000     0.308660000000    -0.39427    
O213     O      0.768050000000     0.035100000000     0.295850000000    -0.392491   
O214     O      0.781200000000     0.012930000000     0.202050000000    -0.401854   
O215     O      0.725460000000     0.019280000000     0.242320000000    -0.398937   
O216     O      0.821710000000     0.028250000000     0.253210000000    -0.402363   
O217     O      0.803620000000     0.012120000000     0.055760000000    -0.390913   
O218     O      0.805570000000     0.008840000000     0.458190000000    -0.389861   
O219     O      0.798140000000     0.057890000000     0.504160000000    -0.389922   
O220     O      0.811360000000     0.462080000000     0.009720000000    -0.387118   
O221     O      0.758230000000     0.455230000000     0.004490000000    -0.404238   
O222     O      0.745000000000     0.050470000000     0.508780000000    -0.396214   
O223     O      0.752020000000     0.503290000000     0.458180000000    -0.398931   
O224     O      0.751240000000     0.500210000000     0.054990000000    -0.39925    
O225     O      0.500170000000     0.239310000000     0.064630000000    -0.395737   
O226     O      0.532600000000     0.245000000000     0.473110000000    -0.394908   
O227     O      0.560980000000     0.252110000000     0.535610000000    -0.39118    
O228     O      0.970620000000     0.232000000000     0.003930000000    -0.399024   
O229     O      0.959350000000     0.283940000000     0.001340000000    -0.40035    
O230     O      0.549780000000     0.304070000000     0.532440000000    -0.395012   
O231     O      0.020110000000     0.296640000000     0.472000000000    -0.399438   
O232     O      0.988350000000     0.291100000000     0.063900000000    -0.392722   
O233     O      0.705880000000     0.266440000000     0.493760000000    -0.39523    
O234     O      0.803080000000     0.262500000000     0.482340000000    -0.395308   
O235     O      0.752440000000     0.215970000000     0.480980000000    -0.398214   
O236     O      0.756260000000     0.310840000000     0.494580000000    -0.405134   
O237     O      0.767640000000     0.303310000000     0.046340000000    -0.389351   
O238     O      0.752600000000     0.208120000000     0.033940000000    -0.390673   
O239     O      0.808470000000     0.248770000000     0.033760000000    -0.387639   
O240     O      0.712150000000     0.260600000000     0.046630000000    -0.392936   
O241     O      0.028840000000     0.074080000000     0.759990000000    -0.391439   
O242     O      0.012150000000     0.481040000000     0.739450000000    -0.389767   
O243     O      0.971890000000     0.535240000000     0.756610000000    -0.393382   
O244     O      0.567380000000     0.021150000000     0.743370000000    -0.393158   
O245     O      0.571840000000     0.006920000000     0.794740000000    -0.388825   
O246     O      0.976290000000     0.521870000000     0.808210000000    -0.399824   
O247     O      0.514410000000     0.468920000000     0.791580000000    -0.393287   
O248     O      0.531720000000     0.062010000000     0.812100000000    -0.39074    
O249     O      0.987490000000     0.219440000000     0.778870000000    -0.388194   
O250     O      0.987270000000     0.316470000000     0.774390000000    -0.395442   
O251     O      0.973580000000     0.266590000000     0.729030000000    -0.390972   
O252     O      0.999940000000     0.270640000000     0.822370000000    -0.400662   
O253     O      0.551850000000     0.268900000000     0.807950000000    -0.387461   
O254     O      0.525410000000     0.264610000000     0.714320000000    -0.39491    
O255     O      0.538500000000     0.315590000000     0.758060000000    -0.395443   
O256     O      0.538770000000     0.219340000000     0.762650000000    -0.394913   
O257     O      0.824810000000     0.477370000000     0.768540000000    -0.395454   
O258     O      0.728080000000     0.468070000000     0.756540000000    -0.389348   
O259     O      0.782920000000     0.461270000000     0.715130000000    -0.388902   
O260     O      0.768550000000     0.483380000000     0.808660000000    -0.394246   
O261     O      0.768050000000     0.035100000000     0.795850000000    -0.392462   
O262     O      0.781200000000     0.012930000000     0.702050000000    -0.401858   
O263     O      0.725460000000     0.019280000000     0.742320000000    -0.398923   
O264     O      0.821710000000     0.028250000000     0.753220000000    -0.402401   
O265     O      0.803620000000     0.012120000000     0.555760000000    -0.391335   
O266     O      0.805570000000     0.008840000000     0.958190000000    -0.387275   
O267     O      0.798140000000     0.057890000000     0.004160000000    -0.390783   
O268     O      0.811360000000     0.462080000000     0.509720000000    -0.386711   
O269     O      0.758230000000     0.455230000000     0.504480000000    -0.403411   
O270     O      0.745000000000     0.050470000000     0.008780000000    -0.396558   
O271     O      0.752020000000     0.503290000000     0.958180000000    -0.396399   
O272     O      0.751240000000     0.500210000000     0.554990000000    -0.399768   
O273     O      0.500170000000     0.239310000000     0.564630000000    -0.39608    
O274     O      0.532600000000     0.245000000000     0.973110000000    -0.392336   
O275     O      0.560980000000     0.252110000000     0.035610000000    -0.391524   
O276     O      0.970620000000     0.232000000000     0.503930000000    -0.394724   
O277     O      0.959350000000     0.283940000000     0.501340000000    -0.395745   
O278     O      0.549780000000     0.304070000000     0.032450000000    -0.395344   
O279     O      0.020110000000     0.296640000000     0.972000000000    -0.396805   
O280     O      0.988350000000     0.291100000000     0.563900000000    -0.39304    
O281     O      0.705880000000     0.266440000000     0.993760000000    -0.391665   
O282     O      0.803080000000     0.262500000000     0.982340000000    -0.392106   
O283     O      0.752440000000     0.215970000000     0.980980000000    -0.394905   
O284     O      0.756260000000     0.310840000000     0.994580000000    -0.40161    
O285     O      0.767640000000     0.303310000000     0.546340000000    -0.390477   
O286     O      0.752600000000     0.208120000000     0.533940000000    -0.391677   
O287     O      0.808470000000     0.248770000000     0.533760000000    -0.3886     
O288     O      0.712150000000     0.260600000000     0.546630000000    -0.394115   
O289     O      0.028840000000     0.574080000000     0.259980000000    -0.391647   
O290     O      0.012150000000     0.981040000000     0.239450000000    -0.387733   
O291     O      0.971890000000     0.035240000000     0.256610000000    -0.393469   
O292     O      0.567380000000     0.521150000000     0.243370000000    -0.392928   
O293     O      0.571840000000     0.506920000000     0.294740000000    -0.388084   
O294     O      0.976290000000     0.021870000000     0.308210000000    -0.400338   
O295     O      0.514410000000     0.968920000000     0.291580000000    -0.391422   
O296     O      0.531720000000     0.562010000000     0.312100000000    -0.391067   
O297     O      0.987490000000     0.719440000000     0.278860000000    -0.388258   
O298     O      0.987270000000     0.816470000000     0.274400000000    -0.395395   
O299     O      0.973580000000     0.766590000000     0.229030000000    -0.390962   
O300     O      0.999940000000     0.770640000000     0.322370000000    -0.400704   
O301     O      0.551850000000     0.768900000000     0.307950000000    -0.387474   
O302     O      0.525410000000     0.764610000000     0.214320000000    -0.394901   
O303     O      0.538500000000     0.815590000000     0.258060000000    -0.395422   
O304     O      0.538770000000     0.719340000000     0.262650000000    -0.39493    
O305     O      0.824810000000     0.977370000000     0.268540000000    -0.393123   
O306     O      0.728080000000     0.968070000000     0.256540000000    -0.39       
O307     O      0.782920000000     0.961270000000     0.215130000000    -0.38958    
O308     O      0.768550000000     0.983380000000     0.308660000000    -0.391783   
O309     O      0.768050000000     0.535100000000     0.295850000000    -0.393161   
O310     O      0.781200000000     0.512930000000     0.202050000000    -0.399416   
O311     O      0.725460000000     0.519280000000     0.242320000000    -0.39669    
O312     O      0.821710000000     0.528250000000     0.253210000000    -0.403016   
O313     O      0.803620000000     0.512120000000     0.055760000000    -0.39063    
O314     O      0.805570000000     0.508840000000     0.458190000000    -0.389554   
O315     O      0.798140000000     0.557890000000     0.504160000000    -0.390249   
O316     O      0.811360000000     0.962080000000     0.009720000000    -0.385134   
O317     O      0.758230000000     0.955230000000     0.004490000000    -0.402323   
O318     O      0.745000000000     0.550470000000     0.508780000000    -0.396487   
O319     O      0.752020000000     0.003290000000     0.458180000000    -0.399561   
O320     O      0.751240000000     0.000220000000     0.054990000000    -0.399966   
O321     O      0.500170000000     0.739310000000     0.064630000000    -0.395716   
O322     O      0.532600000000     0.745000000000     0.473110000000    -0.394886   
O323     O      0.560980000000     0.752110000000     0.535610000000    -0.391164   
O324     O      0.970620000000     0.732000000000     0.003930000000    -0.398982   
O325     O      0.959350000000     0.783940000000     0.001340000000    -0.4003     
O326     O      0.549780000000     0.804070000000     0.532440000000    -0.394933   
O327     O      0.020110000000     0.796640000000     0.472000000000    -0.399384   
O328     O      0.988350000000     0.791100000000     0.063900000000    -0.392676   
O329     O      0.705880000000     0.766440000000     0.493760000000    -0.39522    
O330     O      0.803080000000     0.762510000000     0.482340000000    -0.395262   
O331     O      0.752440000000     0.715970000000     0.480980000000    -0.398222   
O332     O      0.756260000000     0.810840000000     0.494580000000    -0.405107   
O333     O      0.767640000000     0.803310000000     0.046340000000    -0.389342   
O334     O      0.752600000000     0.708120000000     0.033940000000    -0.390678   
O335     O      0.808470000000     0.748770000000     0.033760000000    -0.387626   
O336     O      0.712150000000     0.760600000000     0.046630000000    -0.392933   
O337     O      0.028840000000     0.574080000000     0.759990000000    -0.391776   
O338     O      0.012150000000     0.981040000000     0.739450000000    -0.387711   
O339     O      0.971890000000     0.035240000000     0.756610000000    -0.393451   
O340     O      0.567380000000     0.521150000000     0.743370000000    -0.392821   
O341     O      0.571840000000     0.506920000000     0.794740000000    -0.388109   
O342     O      0.976290000000     0.021870000000     0.808210000000    -0.400229   
O343     O      0.514410000000     0.968920000000     0.791580000000    -0.391378   
O344     O      0.531720000000     0.562010000000     0.812100000000    -0.390986   
O345     O      0.987490000000     0.719440000000     0.778870000000    -0.388199   
O346     O      0.987270000000     0.816470000000     0.774390000000    -0.395421   
O347     O      0.973580000000     0.766590000000     0.729030000000    -0.390969   
O348     O      0.999940000000     0.770640000000     0.822370000000    -0.400655   
O349     O      0.551850000000     0.768900000000     0.807950000000    -0.387459   
O350     O      0.525410000000     0.764610000000     0.714320000000    -0.394906   
O351     O      0.538500000000     0.815590000000     0.758060000000    -0.395434   
O352     O      0.538770000000     0.719340000000     0.762650000000    -0.394916   
O353     O      0.824810000000     0.977370000000     0.768540000000    -0.393134   
O354     O      0.728080000000     0.968070000000     0.756540000000    -0.39       
O355     O      0.782920000000     0.961270000000     0.715130000000    -0.38959    
O356     O      0.768550000000     0.983380000000     0.808660000000    -0.391771   
O357     O      0.768050000000     0.535100000000     0.795850000000    -0.393129   
O358     O      0.781200000000     0.512930000000     0.702050000000    -0.399426   
O359     O      0.725460000000     0.519280000000     0.742320000000    -0.396684   
O360     O      0.821710000000     0.528250000000     0.753220000000    -0.403052   
O361     O      0.803620000000     0.512120000000     0.555760000000    -0.391053   
O362     O      0.805570000000     0.508840000000     0.958190000000    -0.386969   
O363     O      0.798140000000     0.557890000000     0.004160000000    -0.39111    
O364     O      0.811360000000     0.962080000000     0.509720000000    -0.384729   
O365     O      0.758230000000     0.955230000000     0.504480000000    -0.401502   
O366     O      0.745000000000     0.550470000000     0.008780000000    -0.396831   
O367     O      0.752020000000     0.003290000000     0.958180000000    -0.397025   
O368     O      0.751240000000     0.000220000000     0.554990000000    -0.400483   
O369     O      0.500170000000     0.739310000000     0.564630000000    -0.396058   
O370     O      0.532600000000     0.745000000000     0.973110000000    -0.392321   
O371     O      0.560980000000     0.752110000000     0.035610000000    -0.391508   
O372     O      0.970620000000     0.732000000000     0.503930000000    -0.394694   
O373     O      0.959350000000     0.783940000000     0.501340000000    -0.395708   
O374     O      0.549780000000     0.804070000000     0.032450000000    -0.395264   
O375     O      0.020110000000     0.796640000000     0.972000000000    -0.396761   
O376     O      0.988350000000     0.791100000000     0.563900000000    -0.392994   
O377     O      0.705880000000     0.766440000000     0.993760000000    -0.391666   
O378     O      0.803080000000     0.762510000000     0.982340000000    -0.39207    
O379     O      0.752440000000     0.715970000000     0.980980000000    -0.394919   
O380     O      0.756260000000     0.810840000000     0.994580000000    -0.401598   
O381     O      0.767640000000     0.803310000000     0.546340000000    -0.390464   
O382     O      0.752600000000     0.708120000000     0.533940000000    -0.391679   
O383     O      0.808470000000     0.748770000000     0.533760000000    -0.388584   
O384     O      0.712150000000     0.760600000000     0.546630000000    -0.394109   


