data_structure

_audit_creation_method RASPA-1.0
_audit_creation_date 2023-5-22
_audit_author_name 'Poobodin Mano'

_cell_length_a    32.0408
_cell_length_b    32.0951
_cell_length_c    42.8912
_cell_angle_alpha 90
_cell_angle_beta  90
_cell_angle_gamma 90
_cell_volume      44107.3

_symmetry_cell_setting          triclinic
_symmetry_space_group_name_Hall 'P 1'
_symmetry_space_group_name_H-M  'P 1'
_symmetry_Int_Tables_number     1

_symmetry_equiv_pos_as_xyz 'x,y,z'

loop_
_atom_site_label
_atom_site_type_symbol
_atom_site_fract_x
_atom_site_fract_y
_atom_site_fract_z
_atom_site_charge
C1       C      0.599740000000     0.843880000000     0.019490000000     0.402317   
C2       C      0.433860000000     0.840920000000     0.515960000000     0.400363   
C3       C      0.514940000000     0.842370000000     0.080000000000     0.400328   
C4       C      0.520550000000     0.841680000000     0.455900000000     0.40017    
C5       C      0.413830000000     0.837520000000     0.271190000000     0.40226    
C6       C      0.579330000000     0.842210000000     0.263440000000     0.400576   
C7       C      0.490880000000     0.839160000000     0.205400000000     0.400149   
C8       C      0.500370000000     0.841140000000     0.329360000000     0.399968   
C9       C      0.840840000000     0.584330000000     0.989420000000     0.400072   
C10      C      0.811210000000     0.423640000000     0.509920000000     0.402643   
C11      C      0.823240000000     0.515050000000     0.061050000000     0.398868   
C12      C      0.827800000000     0.490080000000     0.438330000000     0.400321   
C13      C      0.826840000000     0.433270000000     0.249930000000     0.399682   
C14      C      0.817420000000     0.598380000000     0.253280000000     0.401759   
C15      C      0.820970000000     0.521440000000     0.189560000000     0.399145   
C16      C      0.824470000000     0.512740000000     0.313500000000     0.398909   
C17      C      0.575310000000     0.157150000000     0.491520000000     0.402076   
C18      C      0.410580000000     0.172350000000     0.500170000000     0.40171    
C19      C      0.498910000000     0.169750000000     0.057610000000     0.397286   
C20      C      0.486790000000     0.160100000000     0.433580000000     0.397899   
C21      C      0.437130000000     0.163560000000     0.240490000000     0.40027    
C22      C      0.602650000000     0.169690000000     0.250130000000     0.399803   
C23      C      0.526160000000     0.171210000000     0.183530000000     0.397997   
C24      C      0.513770000000     0.161470000000     0.307560000000     0.396915   
C25      C      0.158990000000     0.582830000000     0.485180000000     0.402448   
C26      C      0.163150000000     0.417630000000     0.490790000000     0.400136   
C27      C      0.161000000000     0.504520000000     0.050540000000     0.401176   
C28      C      0.160770000000     0.498640000000     0.426730000000     0.401388   
C29      C      0.168800000000     0.401750000000     0.239280000000     0.400849   
C30      C      0.153360000000     0.566630000000     0.237520000000     0.3993     
C31      C      0.161550000000     0.482680000000     0.176090000000     0.400679   
C32      C      0.161080000000     0.483050000000     0.299970000000     0.401294   
C33      C      0.836740000000     0.919810000000     0.994690000000     0.397524   
C34      C      0.851900000000     0.754960000000     0.987980000000     0.397479   
C35      C      0.928480000000     0.846460000000     0.987990000000     0.397194   
C36      C      0.763600000000     0.829440000000     0.994860000000     0.399821   
C37      C      0.826900000000     0.767270000000     0.264580000000     0.401922   
C38      C      0.838310000000     0.932570000000     0.267660000000     0.399925   
C39      C      0.749380000000     0.855770000000     0.268320000000     0.400192   
C40      C      0.914940000000     0.841640000000     0.264200000000     0.398787   
C41      C      0.834030000000     0.090840000000     0.500830000000     0.399405   
C42      C      0.818160000000     0.255670000000     0.506830000000     0.401559   
C43      C      0.907940000000     0.181700000000     0.503470000000     0.401651   
C44      C      0.742720000000     0.167420000000     0.504130000000     0.402451   
C45      C      0.845560000000     0.263460000000     0.250370000000     0.399746   
C46      C      0.864150000000     0.099710000000     0.263840000000     0.399588   
C47      C      0.771900000000     0.171500000000     0.262100000000     0.400239   
C48      C      0.936300000000     0.190790000000     0.252650000000     0.399925   
C49      C      0.156120000000     0.248250000000     0.500980000000     0.400219   
C50      C      0.159900000000     0.082730000000     0.495970000000     0.399858   
C51      C      0.241390000000     0.166350000000     0.495130000000     0.401324   
C52      C      0.075890000000     0.163040000000     0.501100000000     0.401105   
C53      C      0.191250000000     0.234040000000     0.240440000000     0.40161    
C54      C      0.177220000000     0.070240000000     0.256710000000     0.40018    
C55      C      0.267720000000     0.146340000000     0.248430000000     0.400234   
C56      C      0.102000000000     0.159040000000     0.249850000000     0.399862   
C57      C      0.179330000000     0.749940000000     0.493620000000     0.401427   
C58      C      0.186060000000     0.915340000000     0.494340000000     0.40032    
C59      C      0.265180000000     0.829140000000     0.497780000000     0.399359   
C60      C      0.099370000000     0.834790000000     0.490240000000     0.397943   
C61      C      0.160730000000     0.735870000000     0.252320000000     0.398921   
C62      C      0.179740000000     0.900280000000     0.260260000000     0.399467   
C63      C      0.251280000000     0.809790000000     0.254570000000     0.401317   
C64      C      0.086600000000     0.829330000000     0.258940000000     0.39877    
C65      C      0.169500000000     0.007160000000     0.290450000000    -0.0128113  
C66      C      0.162600000000     0.002360000000     0.232210000000    -0.0109259  
C67      C      0.193940000000     0.965540000000     0.290330000000    -0.0125724  
C68      C      0.192410000000     0.965830000000     0.231890000000    -0.0105707  
C69      C      0.189880000000     0.981430000000     0.024150000000    -0.0108459  
C70      C      0.192300000000     0.982420000000     0.465740000000    -0.0117695  
C71      C      0.156240000000     0.015100000000     0.023720000000    -0.011287   
C72      C      0.159520000000     0.017150000000     0.465190000000    -0.0120204  
C73      C      0.034000000000     0.158310000000     0.221990000000    -0.0123322  
C74      C      0.036820000000     0.166490000000     0.280420000000    -0.0119209  
C75      C      0.000870000000     0.192750000000     0.220460000000    -0.0118058  
C76      C      0.004870000000     0.201610000000     0.278240000000    -0.0112468  
C77      C      0.008190000000     0.156980000000     0.473630000000    -0.0117948  
C78      C      0.010590000000     0.159280000000     0.032210000000    -0.0119905  
C79      C      0.973700000000     0.189710000000     0.473690000000    -0.011187   
C80      C      0.974750000000     0.190840000000     0.032110000000    -0.0115079  
C81      C      0.023920000000     0.847420000000     0.289970000000    -0.0119822  
C82      C      0.020670000000     0.846310000000     0.231520000000    -0.0119282  
C83      C      0.981190000000     0.826300000000     0.291650000000    -0.0119781  
C84      C      0.977930000000     0.825250000000     0.233100000000    -0.0118523  
C85      C      0.841120000000     0.998630000000     0.238260000000    -0.0111622  
C86      C      0.838620000000     0.999570000000     0.297040000000    -0.012663   
C87      C      0.875590000000     0.031110000000     0.239050000000    -0.0111591  
C88      C      0.869980000000     0.036010000000     0.297000000000    -0.0122257  
C89      C      0.994120000000     0.853700000000     0.457150000000    -0.0121241  
C90      C      0.994710000000     0.862550000000     0.015090000000    -0.0107398  
C91      C      0.034120000000     0.827160000000     0.459230000000    -0.0128607  
C92      C      0.031720000000     0.833120000000     0.017790000000    -0.0110447  
C93      C      0.846800000000     0.027530000000     0.469100000000    -0.0120243  
C94      C      0.848130000000     0.023800000000     0.027590000000    -0.0112757  
C95      C      0.822120000000     0.986790000000     0.468050000000    -0.0117475  
C96      C      0.823490000000     0.983000000000     0.026500000000    -0.0113819  
C97      C      0.191690000000     0.672830000000     0.230070000000    -0.0116147  
C98      C      0.136700000000     0.667700000000     0.272060000000    -0.0109417  
C99      C      0.174070000000     0.633770000000     0.214560000000    -0.0105013  
C100     C      0.117150000000     0.630520000000     0.254880000000    -0.0109386  
C101     C      0.220950000000     0.302090000000     0.255400000000    -0.0102334  
C102     C      0.171330000000     0.296030000000     0.210110000000    -0.0109112  
C103     C      0.198120000000     0.341250000000     0.266440000000    -0.0112217  
C104     C      0.145410000000     0.332100000000     0.223090000000    -0.0103044  
C105     C      0.184710000000     0.646120000000     0.459050000000    -0.0101152  
C106     C      0.128050000000     0.650300000000     0.999590000000    -0.0129152  
C107     C      0.206720000000     0.683430000000     0.473780000000    -0.0111722  
C108     C      0.151980000000     0.685010000000     0.016250000000    -0.00880788 
C109     C      0.120110000000     0.312330000000     0.484750000000    -0.0106946  
C110     C      0.177560000000     0.314950000000     0.024750000000    -0.0115605  
C111     C      0.137360000000     0.351540000000     0.469270000000    -0.0112331  
C112     C      0.196900000000     0.352370000000     0.007820000000    -0.00874172 
C113     C      0.122830000000     0.472900000000     0.349550000000    -0.0115313  
C114     C      0.201050000000     0.477450000000     0.349210000000    -0.0114064  
C115     C      0.121270000000     0.502700000000     0.377250000000    -0.0116324  
C116     C      0.199660000000     0.506690000000     0.377230000000    -0.0115361  
C117     C      0.201180000000     0.480110000000     0.126430000000    -0.0118189  
C118     C      0.122850000000     0.476430000000     0.126240000000    -0.0117694  
C119     C      0.199720000000     0.512490000000     0.100300000000    -0.0117048  
C120     C      0.121520000000     0.508830000000     0.100180000000    -0.0114206  
C121     C      0.369120000000     0.192790000000     0.255090000000    -0.0104995  
C122     C      0.373910000000     0.135000000000     0.215430000000    -0.0112476  
C123     C      0.333820000000     0.169670000000     0.271460000000    -0.0106611  
C124     C      0.333380000000     0.116030000000     0.228390000000    -0.0114254  
C125     C      0.710180000000     0.129600000000     0.248340000000    -0.0102877  
C126     C      0.704090000000     0.189340000000     0.285930000000    -0.0111155  
C127     C      0.670440000000     0.143720000000     0.231750000000    -0.0116025  
C128     C      0.666250000000     0.205880000000     0.267880000000    -0.0108937  
C129     C      0.306400000000     0.131910000000     0.510920000000    -0.0106932  
C130     C      0.307190000000     0.189420000000     0.470780000000    -0.0109939  
C131     C      0.345730000000     0.149790000000     0.025760000000    -0.0108513  
C132     C      0.345130000000     0.208860000000     0.987040000000    -0.0128464  
C133     C      0.675820000000     0.142210000000     0.025490000000    -0.0109707  
C134     C      0.678230000000     0.199840000000     0.485450000000    -0.0100883  
C135     C      0.640240000000     0.121440000000     0.007180000000    -0.00918445 
C136     C      0.641580000000     0.180250000000     0.468250000000    -0.0100917  
C137     C      0.512830000000     0.119550000000     0.356570000000    -0.013042   
C138     C      0.512630000000     0.197980000000     0.358300000000    -0.0117592  
C139     C      0.481970000000     0.118870000000     0.384250000000    -0.0124939  
C140     C      0.478790000000     0.196680000000     0.383130000000    -0.0112632  
C141     C      0.530640000000     0.212580000000     0.134270000000    -0.0124737  
C142     C      0.534310000000     0.134790000000     0.133050000000    -0.011375   
C143     C      0.500030000000     0.211810000000     0.106490000000    -0.0129475  
C144     C      0.500280000000     0.133350000000     0.108350000000    -0.0116443  
C145     C      0.857160000000     0.371600000000     0.274770000000    -0.0113514  
C146     C      0.797580000000     0.364320000000     0.236670000000    -0.0109422  
C147     C      0.876410000000     0.331570000000     0.262180000000    -0.0109088  
C148     C      0.818500000000     0.325460000000     0.222810000000    -0.0109699  
C149     C      0.856760000000     0.703700000000     0.242490000000    -0.010882   
C150     C      0.805770000000     0.700170000000     0.287360000000    -0.0103262  
C151     C      0.837600000000     0.664320000000     0.228680000000    -0.0103122  
C152     C      0.784240000000     0.662960000000     0.271850000000    -0.0104758  
C153     C      0.826800000000     0.361050000000     0.041040000000    -0.0092344  
C154     C      0.771990000000     0.359360000000     0.499230000000    -0.0107449  
C155     C      0.845410000000     0.320390000000     0.028830000000    -0.011691   
C156     C      0.792930000000     0.321360000000     0.484470000000    -0.0101089  
C157     C      0.873670000000     0.687770000000     0.009780000000    -0.00844503 
C158     C      0.814870000000     0.692850000000     0.470460000000    -0.0123811  
C159     C      0.886130000000     0.645840000000     0.995730000000    -0.0131537  
C160     C      0.824290000000     0.648190000000     0.459930000000    -0.0107774  
C161     C      0.865240000000     0.514630000000     0.362760000000    -0.0125539  
C162     C      0.786620000000     0.510140000000     0.363800000000    -0.0118736  
C163     C      0.867430000000     0.481950000000     0.388860000000    -0.0118301  
C164     C      0.789650000000     0.476850000000     0.389060000000    -0.0107456  
C165     C      0.781060000000     0.514850000000     0.109390000000    -0.0125372  
C166     C      0.859600000000     0.507870000000     0.111270000000    -0.0115223  
C167     C      0.782380000000     0.537860000000     0.140780000000    -0.011958   
C168     C      0.860280000000     0.533850000000     0.140880000000    -0.0113838  
C169     C      0.349880000000     0.806260000000     0.293080000000    -0.0099414  
C170     C      0.346070000000     0.863510000000     0.252850000000    -0.0108847  
C171     C      0.317650000000     0.781090000000     0.274730000000    -0.0104108  
C172     C      0.317210000000     0.836290000000     0.232970000000    -0.0114762  
C173     C      0.683850000000     0.835170000000     0.293690000000    -0.010531   
C174     C      0.683830000000     0.887450000000     0.249750000000    -0.0111344  
C175     C      0.646970000000     0.812700000000     0.278700000000    -0.0102933  
C176     C      0.642540000000     0.869120000000     0.237820000000    -0.011289   
C177     C      0.367240000000     0.812890000000     0.035450000000    -0.0114871  
C178     C      0.368710000000     0.872440000000     0.497020000000    -0.0105142  
C179     C      0.328030000000     0.795730000000     0.019430000000    -0.0105119  
C180     C      0.333760000000     0.851720000000     0.478400000000    -0.010691   
C181     C      0.664300000000     0.876380000000     0.000380000000    -0.00863188 
C182     C      0.667250000000     0.815120000000     0.037160000000    -0.0103521  
C183     C      0.694470000000     0.854110000000     0.478320000000    -0.0110013  
C184     C      0.701260000000     0.795260000000     0.516990000000    -0.0105497  
C185     C      0.498420000000     0.881090000000     0.378830000000    -0.0119794  
C186     C      0.496230000000     0.802700000000     0.379350000000    -0.01195    
C187     C      0.529150000000     0.880180000000     0.406110000000    -0.0117918  
C188     C      0.527170000000     0.802140000000     0.406440000000    -0.0116585  
C189     C      0.521120000000     0.803460000000     0.129760000000    -0.0119265  
C190     C      0.512880000000     0.881400000000     0.129920000000    -0.0117923  
C191     C      0.488420000000     0.799810000000     0.155580000000    -0.0117247  
C192     C      0.480190000000     0.877420000000     0.155720000000    -0.0117409  
C193     C      0.599740000000     0.843880000000     0.519490000000     0.402079   
C194     C      0.433860000000     0.840920000000     0.015960000000     0.400464   
C195     C      0.514940000000     0.842370000000     0.580000000000     0.400276   
C196     C      0.520550000000     0.841680000000     0.955900000000     0.400287   
C197     C      0.413830000000     0.837520000000     0.771190000000     0.402282   
C198     C      0.579330000000     0.842210000000     0.763440000000     0.400578   
C199     C      0.490880000000     0.839160000000     0.705400000000     0.40015    
C200     C      0.500370000000     0.841140000000     0.829360000000     0.39997    
C201     C      0.840840000000     0.584330000000     0.489420000000     0.400201   
C202     C      0.811210000000     0.423640000000     0.009920000000     0.402649   
C203     C      0.823240000000     0.515050000000     0.561050000000     0.398897   
C204     C      0.827800000000     0.490080000000     0.938330000000     0.40041    
C205     C      0.826840000000     0.433270000000     0.749920000000     0.399674   
C206     C      0.817420000000     0.598380000000     0.753280000000     0.401756   
C207     C      0.820970000000     0.521440000000     0.689560000000     0.39914    
C208     C      0.824470000000     0.512740000000     0.813490000000     0.399077   
C209     C      0.575310000000     0.157150000000     0.991520000000     0.401968   
C210     C      0.410580000000     0.172350000000     0.000170000000     0.402792   
C211     C      0.498910000000     0.169750000000     0.557610000000     0.397425   
C212     C      0.486790000000     0.160100000000     0.933580000000     0.397785   
C213     C      0.437130000000     0.163560000000     0.740480000000     0.400268   
C214     C      0.602650000000     0.169690000000     0.750130000000     0.399807   
C215     C      0.526160000000     0.171210000000     0.683530000000     0.398024   
C216     C      0.513770000000     0.161470000000     0.807560000000     0.396896   
C217     C      0.158990000000     0.582830000000     0.985180000000     0.40221    
C218     C      0.163150000000     0.417630000000     0.990790000000     0.400084   
C219     C      0.161000000000     0.504520000000     0.550540000000     0.401296   
C220     C      0.160770000000     0.498640000000     0.926730000000     0.401337   
C221     C      0.168800000000     0.401750000000     0.739280000000     0.400851   
C222     C      0.153360000000     0.566630000000     0.737520000000     0.3993     
C223     C      0.161550000000     0.482680000000     0.676090000000     0.400678   
C224     C      0.161080000000     0.483050000000     0.799970000000     0.401297   
C225     C      0.836740000000     0.919810000000     0.494690000000     0.39874    
C226     C      0.851900000000     0.754960000000     0.487980000000     0.398656   
C227     C      0.928480000000     0.846460000000     0.487990000000     0.398406   
C228     C      0.763600000000     0.829440000000     0.494860000000     0.401078   
C229     C      0.826900000000     0.767270000000     0.764590000000     0.401924   
C230     C      0.838310000000     0.932570000000     0.767660000000     0.399688   
C231     C      0.749380000000     0.855770000000     0.768320000000     0.40019    
C232     C      0.914940000000     0.841640000000     0.764200000000     0.398788   
C233     C      0.834030000000     0.090840000000     0.000820000000     0.401484   
C234     C      0.818160000000     0.255670000000     0.006830000000     0.402815   
C235     C      0.907940000000     0.181700000000     0.003470000000     0.402906   
C236     C      0.742720000000     0.167420000000     0.004130000000     0.403662   
C237     C      0.845560000000     0.263460000000     0.750370000000     0.39975    
C238     C      0.864150000000     0.099710000000     0.763840000000     0.399592   
C239     C      0.771900000000     0.171500000000     0.762100000000     0.400242   
C240     C      0.936300000000     0.190790000000     0.752650000000     0.399931   
C241     C      0.156120000000     0.248250000000     0.000980000000     0.401436   
C242     C      0.159900000000     0.082730000000     0.995970000000     0.398644   
C243     C      0.241390000000     0.166350000000     0.995130000000     0.400174   
C244     C      0.075890000000     0.163040000000     0.001100000000     0.402377   
C245     C      0.191250000000     0.234040000000     0.740440000000     0.401401   
C246     C      0.177220000000     0.070240000000     0.756700000000     0.400214   
C247     C      0.267720000000     0.146340000000     0.748430000000     0.400018   
C248     C      0.102000000000     0.159040000000     0.749850000000     0.399878   
C249     C      0.179330000000     0.749940000000     0.993630000000     0.400252   
C250     C      0.186060000000     0.915340000000     0.994340000000     0.399106   
C251     C      0.265180000000     0.829140000000     0.997780000000     0.398147   
C252     C      0.099370000000     0.834790000000     0.990240000000     0.396728   
C253     C      0.160730000000     0.735870000000     0.752320000000     0.398925   
C254     C      0.179740000000     0.900280000000     0.760260000000     0.399471   
C255     C      0.251280000000     0.809790000000     0.754570000000     0.40132    
C256     C      0.086600000000     0.829330000000     0.758940000000     0.398774   
C257     C      0.169500000000     0.007160000000     0.790450000000    -0.0127582  
C258     C      0.162600000000     0.002360000000     0.732210000000    -0.0109322  
C259     C      0.193940000000     0.965540000000     0.790330000000    -0.0125873  
C260     C      0.192410000000     0.965830000000     0.731890000000    -0.0105662  
C261     C      0.189880000000     0.981430000000     0.524150000000    -0.011434   
C262     C      0.192300000000     0.982420000000     0.965740000000    -0.0118611  
C263     C      0.156240000000     0.015100000000     0.523720000000    -0.0118667  
C264     C      0.159520000000     0.017150000000     0.965190000000    -0.0121108  
C265     C      0.034000000000     0.158310000000     0.721990000000    -0.012329   
C266     C      0.036820000000     0.166490000000     0.780420000000    -0.0119325  
C267     C      0.000870000000     0.192750000000     0.720460000000    -0.0118056  
C268     C      0.004870000000     0.201610000000     0.778240000000    -0.0112037  
C269     C      0.008190000000     0.156980000000     0.973630000000    -0.0123894  
C270     C      0.010590000000     0.159280000000     0.532210000000    -0.0121029  
C271     C      0.973700000000     0.189710000000     0.973690000000    -0.0117152  
C272     C      0.974750000000     0.190840000000     0.532110000000    -0.011556   
C273     C      0.023920000000     0.847420000000     0.789970000000    -0.0119813  
C274     C      0.020670000000     0.846310000000     0.731520000000    -0.0119271  
C275     C      0.981190000000     0.826300000000     0.791650000000    -0.0119736  
C276     C      0.977930000000     0.825250000000     0.733100000000    -0.011848   
C277     C      0.841120000000     0.998630000000     0.738260000000    -0.011174   
C278     C      0.838620000000     0.999570000000     0.797040000000    -0.0126717  
C279     C      0.875590000000     0.031110000000     0.739050000000    -0.0111512  
C280     C      0.869980000000     0.036010000000     0.797000000000    -0.0122187  
C281     C      0.994120000000     0.853700000000     0.957150000000    -0.0122202  
C282     C      0.994710000000     0.862550000000     0.515090000000    -0.0113174  
C283     C      0.034120000000     0.827160000000     0.959230000000    -0.0129596  
C284     C      0.031720000000     0.833120000000     0.517790000000    -0.0116413  
C285     C      0.846800000000     0.027530000000     0.969100000000    -0.0119811  
C286     C      0.848130000000     0.023800000000     0.527590000000    -0.012011   
C287     C      0.822120000000     0.986790000000     0.968050000000    -0.0118847  
C288     C      0.823490000000     0.983000000000     0.526500000000    -0.0118804  
C289     C      0.191690000000     0.672830000000     0.730070000000    -0.0116114  
C290     C      0.136700000000     0.667700000000     0.772060000000    -0.0109141  
C291     C      0.174070000000     0.633770000000     0.714560000000    -0.0104988  
C292     C      0.117150000000     0.630520000000     0.754890000000    -0.0109916  
C293     C      0.220950000000     0.302090000000     0.755410000000    -0.0103041  
C294     C      0.171330000000     0.296030000000     0.710110000000    -0.0109184  
C295     C      0.198120000000     0.341250000000     0.766440000000    -0.0111889  
C296     C      0.145410000000     0.332100000000     0.723090000000    -0.0102987  
C297     C      0.184710000000     0.646120000000     0.959060000000    -0.0101198  
C298     C      0.128050000000     0.650300000000     0.499590000000    -0.0105669  
C299     C      0.206720000000     0.683430000000     0.973770000000    -0.0112204  
C300     C      0.151980000000     0.685010000000     0.516250000000    -0.010846   
C301     C      0.120110000000     0.312330000000     0.984750000000    -0.0126742  
C302     C      0.177560000000     0.314950000000     0.524750000000    -0.0110362  
C303     C      0.137360000000     0.351540000000     0.969270000000    -0.0107363  
C304     C      0.196900000000     0.352370000000     0.507820000000    -0.0108855  
C305     C      0.122830000000     0.472900000000     0.849550000000    -0.0115307  
C306     C      0.201050000000     0.477450000000     0.849210000000    -0.0114048  
C307     C      0.121270000000     0.502700000000     0.877250000000    -0.0116293  
C308     C      0.199660000000     0.506690000000     0.877230000000    -0.0115338  
C309     C      0.201180000000     0.480110000000     0.626430000000    -0.0118348  
C310     C      0.122850000000     0.476430000000     0.626240000000    -0.0117706  
C311     C      0.199720000000     0.512490000000     0.600300000000    -0.011703   
C312     C      0.121520000000     0.508830000000     0.600180000000    -0.0114155  
C313     C      0.369120000000     0.192790000000     0.755090000000    -0.0104605  
C314     C      0.373910000000     0.135000000000     0.715430000000    -0.0112418  
C315     C      0.333820000000     0.169670000000     0.771460000000    -0.0106769  
C316     C      0.333380000000     0.116030000000     0.728390000000    -0.0114481  
C317     C      0.710180000000     0.129600000000     0.748340000000    -0.0102922  
C318     C      0.704090000000     0.189340000000     0.785930000000    -0.0111137  
C319     C      0.670440000000     0.143720000000     0.731750000000    -0.0115774  
C320     C      0.666250000000     0.205880000000     0.767880000000    -0.0108899  
C321     C      0.306400000000     0.131910000000     0.010920000000    -0.0086343  
C322     C      0.307190000000     0.189420000000     0.970790000000    -0.0104356  
C323     C      0.345730000000     0.149790000000     0.525760000000    -0.0103545  
C324     C      0.345130000000     0.208860000000     0.487040000000    -0.0107978  
C325     C      0.675820000000     0.142210000000     0.525490000000    -0.0105107  
C326     C      0.678230000000     0.199840000000     0.985450000000    -0.0121088  
C327     C      0.640240000000     0.121440000000     0.507180000000    -0.0112704  
C328     C      0.641580000000     0.180250000000     0.968250000000    -0.00957232 
C329     C      0.512830000000     0.119550000000     0.856570000000    -0.013041   
C330     C      0.512630000000     0.197980000000     0.858300000000    -0.0117635  
C331     C      0.481970000000     0.118870000000     0.884250000000    -0.0124957  
C332     C      0.478790000000     0.196680000000     0.883140000000    -0.0112518  
C333     C      0.530640000000     0.212580000000     0.634270000000    -0.0124783  
C334     C      0.534310000000     0.134790000000     0.633050000000    -0.0113761  
C335     C      0.500030000000     0.211810000000     0.606490000000    -0.0129362  
C336     C      0.500280000000     0.133350000000     0.608350000000    -0.0116359  
C337     C      0.857160000000     0.371600000000     0.774770000000    -0.0113394  
C338     C      0.797580000000     0.364320000000     0.736670000000    -0.0109478  
C339     C      0.876410000000     0.331570000000     0.762180000000    -0.0109113  
C340     C      0.818500000000     0.325460000000     0.722810000000    -0.0109665  
C341     C      0.856760000000     0.703700000000     0.742490000000    -0.0108734  
C342     C      0.805770000000     0.700170000000     0.787360000000    -0.0103335  
C343     C      0.837600000000     0.664320000000     0.728680000000    -0.0103102  
C344     C      0.784240000000     0.662960000000     0.771850000000    -0.0104696  
C345     C      0.826800000000     0.361050000000     0.541040000000    -0.00924036 
C346     C      0.771990000000     0.359360000000     0.999230000000    -0.0125877  
C347     C      0.845410000000     0.320390000000     0.528830000000    -0.0117973  
C348     C      0.792930000000     0.321360000000     0.984460000000    -0.0104479  
C349     C      0.873670000000     0.687770000000     0.509780000000    -0.0105032  
C350     C      0.814870000000     0.692850000000     0.970460000000    -0.0123305  
C351     C      0.886130000000     0.645840000000     0.495730000000    -0.0108003  
C352     C      0.824290000000     0.648190000000     0.959930000000    -0.0109282  
C353     C      0.865240000000     0.514630000000     0.862760000000    -0.0125678  
C354     C      0.786620000000     0.510140000000     0.863800000000    -0.0118767  
C355     C      0.867430000000     0.481950000000     0.888860000000    -0.0118118  
C356     C      0.789650000000     0.476850000000     0.889060000000    -0.0107394  
C357     C      0.781060000000     0.514850000000     0.609390000000    -0.0125085  
C358     C      0.859600000000     0.507870000000     0.611270000000    -0.0115266  
C359     C      0.782380000000     0.537860000000     0.640780000000    -0.011968   
C360     C      0.860280000000     0.533850000000     0.640880000000    -0.011383   
C361     C      0.349880000000     0.806260000000     0.793080000000    -0.00993622 
C362     C      0.346070000000     0.863510000000     0.752850000000    -0.0108827  
C363     C      0.317650000000     0.781090000000     0.774730000000    -0.0104094  
C364     C      0.317210000000     0.836290000000     0.732970000000    -0.0114736  
C365     C      0.683850000000     0.835170000000     0.793690000000    -0.0105293  
C366     C      0.683830000000     0.887450000000     0.749750000000    -0.0111664  
C367     C      0.646970000000     0.812700000000     0.778700000000    -0.0102897  
C368     C      0.642540000000     0.869120000000     0.737820000000    -0.0112733  
C369     C      0.367240000000     0.812890000000     0.535450000000    -0.0113415  
C370     C      0.368710000000     0.872440000000     0.997020000000    -0.012552   
C371     C      0.328030000000     0.795730000000     0.519430000000    -0.0112636  
C372     C      0.333760000000     0.851720000000     0.978400000000    -0.0102751  
C373     C      0.664300000000     0.876380000000     0.500380000000    -0.0108822  
C374     C      0.667250000000     0.815120000000     0.537160000000    -0.0103435  
C375     C      0.694470000000     0.854110000000     0.978320000000    -0.0124014  
C376     C      0.701260000000     0.795260000000     0.016990000000    -0.00996071 
C377     C      0.498420000000     0.881090000000     0.878830000000    -0.0119944  
C378     C      0.496230000000     0.802700000000     0.879350000000    -0.0119562  
C379     C      0.529150000000     0.880180000000     0.906110000000    -0.0117836  
C380     C      0.527170000000     0.802140000000     0.906440000000    -0.011666   
C381     C      0.521120000000     0.803460000000     0.629760000000    -0.0119233  
C382     C      0.512880000000     0.881400000000     0.629920000000    -0.011789   
C383     C      0.488420000000     0.799810000000     0.655580000000    -0.0117228  
C384     C      0.480190000000     0.877420000000     0.655720000000    -0.0117397  
Cu1      Cu     0.516170000000     0.880660000000     0.017200000000     0.846221   
Cu2      Cu     0.517580000000     0.803680000000     0.518650000000     0.84163    
Cu3      Cu     0.495380000000     0.878520000000     0.266440000000     0.842633   
Cu4      Cu     0.497620000000     0.801560000000     0.268240000000     0.844947   
Cu5      Cu     0.787860000000     0.510100000000     0.997570000000     0.838302   
Cu6      Cu     0.863800000000     0.497580000000     0.501530000000     0.845005   
Cu7      Cu     0.783950000000     0.513800000000     0.251940000000     0.835728   
Cu8      Cu     0.860730000000     0.518120000000     0.251010000000     0.846771   
Cu9      Cu     0.496030000000     0.203070000000     0.493430000000     0.841436   
Cu10     Cu     0.489840000000     0.126550000000     0.497780000000     0.840319   
Cu11     Cu     0.518360000000     0.204810000000     0.247440000000     0.841102   
Cu12     Cu     0.521350000000     0.128070000000     0.243600000000     0.837242   
Cu13     Cu     0.122540000000     0.499510000000     0.488730000000     0.845187   
Cu14     Cu     0.199500000000     0.501270000000     0.488520000000     0.843175   
Cu15     Cu     0.122810000000     0.480530000000     0.237960000000     0.841195   
Cu16     Cu     0.199440000000     0.487600000000     0.238180000000     0.844086   
Cu17     Cu     0.848440000000     0.835110000000     0.019880000000     0.842029   
Cu18     Cu     0.843290000000     0.839760000000     0.462690000000     0.836712   
Cu19     Cu     0.832970000000     0.848450000000     0.295090000000     0.836499   
Cu20     Cu     0.831350000000     0.851060000000     0.237510000000     0.848524   
Cu21     Cu     0.824620000000     0.175560000000     0.475080000000     0.848766   
Cu22     Cu     0.826070000000     0.171180000000     0.032620000000     0.842178   
Cu23     Cu     0.851340000000     0.176980000000     0.228840000000     0.84155    
Cu24     Cu     0.856590000000     0.186220000000     0.285730000000     0.83779    
Cu25     Cu     0.160820000000     0.163800000000     0.026950000000     0.842975   
Cu26     Cu     0.156590000000     0.167350000000     0.469650000000     0.842002   
Cu27     Cu     0.186050000000     0.157320000000     0.277480000000     0.838814   
Cu28     Cu     0.183710000000     0.147200000000     0.220400000000     0.846853   
Cu29     Cu     0.185040000000     0.833070000000     0.465260000000     0.835679   
Cu30     Cu     0.179830000000     0.831950000000     0.022560000000     0.845848   
Cu31     Cu     0.168210000000     0.820970000000     0.228030000000     0.851937   
Cu32     Cu     0.169680000000     0.815350000000     0.285320000000     0.828194   
Cu33     Cu     0.516170000000     0.880660000000     0.517200000000     0.845252   
Cu34     Cu     0.517580000000     0.803680000000     0.018650000000     0.842538   
Cu35     Cu     0.495380000000     0.878520000000     0.766440000000     0.842642   
Cu36     Cu     0.497620000000     0.801560000000     0.768240000000     0.844932   
Cu37     Cu     0.787860000000     0.510100000000     0.497570000000     0.8411     
Cu38     Cu     0.863800000000     0.497580000000     0.001530000000     0.847787   
Cu39     Cu     0.783950000000     0.513800000000     0.751940000000     0.835594   
Cu40     Cu     0.860730000000     0.518120000000     0.751010000000     0.846799   
Cu41     Cu     0.496030000000     0.203070000000     0.993430000000     0.840721   
Cu42     Cu     0.489840000000     0.126550000000     0.997790000000     0.838753   
Cu43     Cu     0.518360000000     0.204810000000     0.747440000000     0.841087   
Cu44     Cu     0.521350000000     0.128070000000     0.743590000000     0.837275   
Cu45     Cu     0.122540000000     0.499510000000     0.988730000000     0.844279   
Cu46     Cu     0.199500000000     0.501270000000     0.988520000000     0.842332   
Cu47     Cu     0.122810000000     0.480530000000     0.737960000000     0.841204   
Cu48     Cu     0.199440000000     0.487600000000     0.738180000000     0.844069   
Cu49     Cu     0.848440000000     0.835110000000     0.519880000000     0.841401   
Cu50     Cu     0.843290000000     0.839760000000     0.962690000000     0.835635   
Cu51     Cu     0.832970000000     0.848450000000     0.795090000000     0.836512   
Cu52     Cu     0.831350000000     0.851060000000     0.737510000000     0.848472   
Cu53     Cu     0.824620000000     0.175560000000     0.975080000000     0.848265   
Cu54     Cu     0.826070000000     0.171180000000     0.532620000000     0.841084   
Cu55     Cu     0.851340000000     0.176980000000     0.728840000000     0.841561   
Cu56     Cu     0.856590000000     0.186220000000     0.785730000000     0.83779    
Cu57     Cu     0.160820000000     0.163800000000     0.526950000000     0.842123   
Cu58     Cu     0.156590000000     0.167350000000     0.969650000000     0.841191   
Cu59     Cu     0.186050000000     0.157320000000     0.777480000000     0.838873   
Cu60     Cu     0.183710000000     0.147200000000     0.720390000000     0.846854   
Cu61     Cu     0.185040000000     0.833070000000     0.965260000000     0.834582   
Cu62     Cu     0.179830000000     0.831950000000     0.522560000000     0.845199   
Cu63     Cu     0.168210000000     0.820970000000     0.728030000000     0.851938   
Cu64     Cu     0.169680000000     0.815350000000     0.785320000000     0.828202   
H1       H      0.130130000000     0.990210000000     0.233680000000     0.0411328  
H2       H      0.136300000000     0.000110000000     0.295830000000     0.0392127  
H3       H      0.184860000000     0.946970000000     0.311140000000     0.0421958  
H4       H      0.165580000000     0.019390000000     0.209770000000     0.0435463  
H5       H      0.186660000000     0.947090000000     0.210540000000     0.0430573  
H6       H      0.224870000000     0.978010000000     0.230490000000     0.0396596  
H7       H      0.181670000000     0.027300000000     0.309470000000     0.0426164  
H8       H      0.227730000000     0.972890000000     0.292450000000     0.0389183  
H9       H      0.223700000000     0.997170000000     0.465010000000     0.0390632  
H10      H      0.220810000000     0.996890000000     0.026390000000     0.0393674  
H11      H      0.159040000000     0.034050000000     0.045300000000     0.0431021  
H12      H      0.188900000000     0.963130000000     0.444380000000     0.0433094  
H13      H      0.165530000000     0.037630000000     0.444790000000     0.0431228  
H14      H      0.128330000000     0.002580000000     0.461910000000     0.0403116  
H15      H      0.185250000000     0.961430000000     0.045010000000     0.0426761  
H16      H      0.125210000000     0.999560000000     0.024150000000     0.040437   
H17      H      0.019900000000     0.136940000000     0.285270000000     0.0413404  
H18      H      0.017720000000     0.127720000000     0.222430000000     0.0403516  
H19      H      0.979650000000     0.186590000000     0.200490000000     0.0426601  
H20      H      0.057830000000     0.172730000000     0.300490000000     0.043327   
H21      H      0.986650000000     0.203010000000     0.300250000000     0.0430021  
H22      H      0.022060000000     0.231560000000     0.275860000000     0.0389124  
H23      H      0.053130000000     0.159520000000     0.200390000000     0.042863   
H24      H      0.017010000000     0.222850000000     0.216030000000     0.0386104  
H25      H      0.997040000000     0.127630000000     0.035200000000     0.040209   
H26      H      0.993420000000     0.125630000000     0.473030000000     0.0405449  
H27      H      0.953790000000     0.185200000000     0.452750000000     0.0428598  
H28      H      0.031060000000     0.165550000000     0.052590000000     0.042917   
H29      H      0.955620000000     0.186430000000     0.053450000000     0.0428892  
H30      H      0.988490000000     0.222640000000     0.033130000000     0.0389776  
H31      H      0.026900000000     0.160590000000     0.451980000000     0.0434466  
H32      H      0.988410000000     0.221020000000     0.471980000000     0.0392777  
H33      H      0.015800000000     0.880480000000     0.229250000000     0.0396184  
H34      H      0.019220000000     0.881670000000     0.291780000000     0.0398364  
H35      H      0.964820000000     0.837460000000     0.312920000000     0.0430572  
H36      H      0.037020000000     0.835420000000     0.210160000000     0.0427673  
H37      H      0.959260000000     0.835500000000     0.212650000000     0.0428931  
H38      H      0.982570000000     0.791020000000     0.231040000000     0.039164   
H39      H      0.042600000000     0.837430000000     0.310490000000     0.0433913  
H40      H      0.986080000000     0.792160000000     0.294140000000     0.0400854  
H41      H      0.806690000000     0.012840000000     0.299160000000     0.039603   
H42      H      0.810670000000     0.014850000000     0.235420000000     0.0405206  
H43      H      0.875500000000     0.048720000000     0.216750000000     0.0431039  
H44      H      0.844270000000     0.979980000000     0.317990000000     0.0429034  
H45      H      0.862710000000     0.057280000000     0.316710000000     0.0427168  
H46      H      0.901660000000     0.022940000000     0.301040000000     0.0388948  
H47      H      0.845940000000     0.978560000000     0.217460000000     0.0433735  
H48      H      0.906090000000     0.014710000000     0.240850000000     0.0398079  
H49      H      0.006810000000     0.894950000000     0.013310000000     0.0399657  
H50      H      0.003430000000     0.886440000000     0.452280000000     0.039066   
H51      H      0.054010000000     0.834000000000     0.438630000000     0.0428589  
H52      H      0.975890000000     0.860500000000     0.036790000000     0.0432823  
H53      H      0.050010000000     0.841960000000     0.038780000000     0.0432105  
H54      H      0.019720000000     0.800970000000     0.021470000000     0.0406713  
H55      H      0.975050000000     0.842640000000     0.437150000000     0.0427946  
H56      H      0.024990000000     0.793790000000     0.457900000000     0.0399257  
H57      H      0.881920000000     0.016080000000     0.028920000000     0.0398187  
H58      H      0.880480000000     0.020030000000     0.466380000000     0.0400456  
H59      H      0.830350000000     0.969910000000     0.446280000000     0.0433659  
H60      H      0.839680000000     0.040720000000     0.049300000000     0.0429404  
H61      H      0.832950000000     0.963370000000     0.046640000000     0.0425876  
H62      H      0.789780000000     0.990430000000     0.029200000000     0.039562   
H63      H      0.837370000000     0.047120000000     0.448930000000     0.0431134  
H64      H      0.788330000000     0.994590000000     0.466860000000     0.039332   
H65      H      0.158200000000     0.655720000000     0.290330000000     0.0422454  
H66      H      0.218440000000     0.663260000000     0.244960000000     0.0398822  
H67      H      0.199950000000     0.615520000000     0.203940000000     0.0407251  
H68      H      0.111650000000     0.686030000000     0.283670000000     0.0390815  
H69      H      0.102170000000     0.609440000000     0.272180000000     0.039717   
H70      H      0.092650000000     0.642350000000     0.238790000000     0.0412384  
H71      H      0.204240000000     0.694050000000     0.211820000000     0.0416321  
H72      H      0.153180000000     0.643870000000     0.195280000000     0.0390981  
H73      H      0.194280000000     0.308660000000     0.193100000000     0.0416672  
H74      H      0.248050000000     0.312150000000     0.241070000000     0.03873    
H75      H      0.221120000000     0.363860000000     0.276010000000     0.0405371  
H76      H      0.150280000000     0.273980000000     0.197710000000     0.0403285  
H77      H      0.130330000000     0.349040000000     0.203450000000     0.0389036  
H78      H      0.120540000000     0.319270000000     0.238430000000     0.0421323  
H79      H      0.233480000000     0.284840000000     0.275860000000     0.0398234  
H80      H      0.177060000000     0.332190000000     0.285900000000     0.0397649  
H81      H      0.105260000000     0.664650000000     0.983240000000     0.0414765  
H82      H      0.164720000000     0.657910000000     0.439780000000     0.0392481  
H83      H      0.221180000000     0.702790000000     0.455170000000     0.0413713  
H84      H      0.110630000000     0.631560000000     0.017120000000     0.0410031  
H85      H      0.129250000000     0.705950000000     0.028060000000     0.0402803  
H86      H      0.172450000000     0.670820000000     0.034300000000     0.0416765  
H87      H      0.208210000000     0.624770000000     0.448590000000     0.0404953  
H88      H      0.232420000000     0.671420000000     0.488690000000     0.0397879  
H89      H      0.156850000000     0.326660000000     0.043620000000     0.0414854  
H90      H      0.095080000000     0.321970000000     0.001190000000     0.0403075  
H91      H      0.111050000000     0.370620000000     0.460180000000     0.0413801  
H92      H      0.202850000000     0.295990000000     0.035480000000     0.0399917  
H93      H      0.212910000000     0.372630000000     0.025160000000     0.0396012  
H94      H      0.220580000000     0.340780000000     0.490970000000     0.0413928  
H95      H      0.105460000000     0.292030000000     0.466800000000     0.0408635  
H96      H      0.156450000000     0.341760000000     0.448900000000     0.0398655  
H97      H      0.205340000000     0.445110000000     0.357950000000     0.0388299  
H98      H      0.122540000000     0.440410000000     0.358580000000     0.0393539  
H99      H      0.093570000000     0.494850000000     0.391700000000     0.0429242  
H100     H      0.228710000000     0.485330000000     0.334730000000     0.0428474  
H101     H      0.228060000000     0.501570000000     0.391610000000     0.0428889  
H102     H      0.200670000000     0.539300000000     0.368500000000     0.0393718  
H103     H      0.094260000000     0.477440000000     0.335250000000     0.0427677  
H104     H      0.117030000000     0.534920000000     0.368240000000     0.039897   
H105     H      0.122070000000     0.444950000000     0.115430000000     0.0399358  
H106     H      0.205060000000     0.448810000000     0.115680000000     0.0397688  
H107     H      0.228170000000     0.509210000000     0.085690000000     0.0431133  
H108     H      0.094390000000     0.479770000000     0.140830000000     0.0432607  
H109     H      0.093510000000     0.503140000000     0.085510000000     0.0431388  
H110     H      0.118010000000     0.540120000000     0.111010000000     0.0393387  
H111     H      0.229030000000     0.486220000000     0.141190000000     0.0431687  
H112     H      0.200300000000     0.544010000000     0.111070000000     0.0393485  
H113     H      0.365600000000     0.154020000000     0.194670000000     0.0386181  
H114     H      0.355510000000     0.215450000000     0.238310000000     0.0418426  
H115     H      0.313830000000     0.192790000000     0.283760000000     0.0402188  
H116     H      0.394890000000     0.109660000000     0.207230000000     0.0405906  
H117     H      0.313880000000     0.104340000000     0.208800000000     0.040836   
H118     H      0.342000000000     0.088590000000     0.242840000000     0.0388732  
H119     H      0.387540000000     0.210280000000     0.272780000000     0.0397125  
H120     H      0.347390000000     0.148150000000     0.289080000000     0.0424481  
H121     H      0.692800000000     0.169190000000     0.305260000000     0.0410269  
H122     H      0.701290000000     0.105610000000     0.265830000000     0.03899    
H123     H      0.652670000000     0.115890000000     0.223860000000     0.041748   
H124     H      0.721600000000     0.216030000000     0.296090000000     0.0398151  
H125     H      0.644880000000     0.221980000000     0.284410000000     0.039942   
H126     H      0.677220000000     0.229030000000     0.250410000000     0.0420078  
H127     H      0.731550000000     0.114490000000     0.231310000000     0.0405471  
H128     H      0.679760000000     0.161300000000     0.210520000000     0.0405236  
H129     H      0.318370000000     0.169080000000     0.451530000000     0.0417041  
H130     H      0.315990000000     0.106930000000     0.494450000000     0.0401541  
H131     H      0.365280000000     0.124010000000     0.035090000000     0.0411041  
H132     H      0.287570000000     0.214610000000     0.460630000000     0.0392848  
H133     H      0.364720000000     0.225110000000     0.469400000000     0.0397589  
H134     H      0.333930000000     0.232210000000     0.004270000000     0.0421398  
H135     H      0.286730000000     0.117150000000     0.029230000000     0.0407844  
H136     H      0.336080000000     0.169450000000     0.045860000000     0.0400406  
H137     H      0.665690000000     0.224170000000     0.501350000000     0.0401898  
H138     H      0.662050000000     0.162030000000     0.044100000000     0.0418284  
H139     H      0.619510000000     0.104560000000     0.023720000000     0.0398797  
H140     H      0.699140000000     0.215660000000     0.468450000000     0.0399089  
H141     H      0.622120000000     0.205080000000     0.457470000000     0.0403965  
H142     H      0.654330000000     0.160740000000     0.449060000000     0.0403168  
H143     H      0.695450000000     0.117800000000     0.036640000000     0.03844    
H144     H      0.653970000000     0.098450000000     0.990720000000     0.0402438  
H145     H      0.543470000000     0.200160000000     0.370080000000     0.0406803  
H146     H      0.544870000000     0.115300000000     0.366000000000     0.0399449  
H147     H      0.489050000000     0.091570000000     0.399290000000     0.0426954  
H148     H      0.508380000000     0.226730000000     0.344220000000     0.0432813  
H149     H      0.480430000000     0.225630000000     0.397280000000     0.0429899  
H150     H      0.447920000000     0.196310000000     0.371260000000     0.0390467  
H151     H      0.506100000000     0.092570000000     0.341120000000     0.0429843  
H152     H      0.449980000000     0.114630000000     0.374720000000     0.0391742  
H153     H      0.565110000000     0.135380000000     0.121090000000     0.0392618  
H154     H      0.562660000000     0.217060000000     0.124850000000     0.0391287  
H155     H      0.506830000000     0.238740000000     0.091020000000     0.0432804  
H156     H      0.532820000000     0.105780000000     0.147140000000     0.0431336  
H157     H      0.504610000000     0.104620000000     0.094260000000     0.0431171  
H158     H      0.469490000000     0.131130000000     0.120220000000     0.0405835  
H159     H      0.523370000000     0.239820000000     0.149310000000     0.0430115  
H160     H      0.467940000000     0.216150000000     0.115810000000     0.0397046  
H161     H      0.774310000000     0.354260000000     0.254380000000     0.0415213  
H162     H      0.838640000000     0.363600000000     0.295860000000     0.039816   
H163     H      0.892440000000     0.314770000000     0.281450000000     0.04139    
H164     H      0.780800000000     0.381330000000     0.217860000000     0.0398427  
H165     H      0.794030000000     0.303790000000     0.214080000000     0.0395645  
H166     H      0.838290000000     0.335140000000     0.202780000000     0.0415425  
H167     H      0.882490000000     0.393050000000     0.282300000000     0.0415726  
H168     H      0.900650000000     0.340260000000     0.244800000000     0.0395545  
H169     H      0.829000000000     0.688390000000     0.304490000000     0.042427   
H170     H      0.884710000000     0.694470000000     0.256220000000     0.0399218  
H171     H      0.862410000000     0.645400000000     0.217300000000     0.0404363  
H172     H      0.782110000000     0.719040000000     0.300080000000     0.0380985  
H173     H      0.770660000000     0.642480000000     0.290180000000     0.0390541  
H174     H      0.758490000000     0.674660000000     0.256830000000     0.0414552  
H175     H      0.867680000000     0.724340000000     0.223310000000     0.0405482  
H176     H      0.815220000000     0.673860000000     0.210190000000     0.0393295  
H177     H      0.747520000000     0.348470000000     0.515710000000     0.0405958  
H178     H      0.804590000000     0.353130000000     0.060060000000     0.0385117  
H179     H      0.855690000000     0.300900000000     0.048860000000     0.0413742  
H180     H      0.756980000000     0.378400000000     0.480670000000     0.0390946  
H181     H      0.768690000000     0.301640000000     0.473150000000     0.0376427  
H182     H      0.815060000000     0.332110000000     0.466170000000     0.0432621  
H183     H      0.851870000000     0.380730000000     0.051320000000     0.0395039  
H184     H      0.873760000000     0.328150000000     0.015050000000     0.041208   
H185     H      0.787840000000     0.691780000000     0.486720000000     0.039235   
H186     H      0.853680000000     0.682190000000     0.030570000000     0.0432554  
H187     H      0.901750000000     0.626770000000     0.013980000000     0.0418885  
H188     H      0.804880000000     0.711500000000     0.449900000000     0.0419675  
H189     H      0.794590000000     0.632040000000     0.454090000000     0.0409317  
H190     H      0.842960000000     0.649960000000     0.438110000000     0.0380401  
H191     H      0.902270000000     0.704490000000     0.017560000000     0.0386604  
H192     H      0.908680000000     0.651350000000     0.976450000000     0.0416317  
H193     H      0.782220000000     0.540870000000     0.375320000000     0.0406601  
H194     H      0.867010000000     0.546060000000     0.373590000000     0.0403158  
H195     H      0.895390000000     0.488070000000     0.403500000000     0.0422402  
H196     H      0.758510000000     0.503950000000     0.349350000000     0.0430915  
H197     H      0.761160000000     0.477790000000     0.403820000000     0.0425147  
H198     H      0.790550000000     0.445870000000     0.377450000000     0.0385905  
H199     H      0.892990000000     0.510860000000     0.347480000000     0.0430753  
H200     H      0.871110000000     0.450730000000     0.377950000000     0.0386793  
H201     H      0.860150000000     0.474330000000     0.117800000000     0.0409308  
H202     H      0.773060000000     0.481690000000     0.113940000000     0.039925   
H203     H      0.753860000000     0.529870000000     0.154260000000     0.0430716  
H204     H      0.888610000000     0.514660000000     0.097990000000     0.0431399  
H205     H      0.888240000000     0.524990000000     0.154710000000     0.0431405  
H206     H      0.863600000000     0.567200000000     0.134280000000     0.0388014  
H207     H      0.755480000000     0.528280000000     0.095050000000     0.043052   
H208     H      0.781510000000     0.571920000000     0.136020000000     0.0386873  
H209     H      0.326600000000     0.884110000000     0.267790000000     0.0417406  
H210     H      0.332970000000     0.823960000000     0.311440000000     0.0403281  
H211     H      0.297190000000     0.763610000000     0.291100000000     0.0404756  
H212     H      0.365530000000     0.883310000000     0.237280000000     0.0396185  
H213     H      0.296460000000     0.856760000000     0.218900000000     0.0410203  
H214     H      0.336640000000     0.817390000000     0.216790000000     0.0412974  
H215     H      0.371990000000     0.784800000000     0.305000000000     0.0399244  
H216     H      0.334790000000     0.757870000000     0.260380000000     0.0399766  
H217     H      0.676320000000     0.915310000000     0.264090000000     0.0388926  
H218     H      0.671850000000     0.857700000000     0.311240000000     0.042386   
H219     H      0.628520000000     0.796820000000     0.297210000000     0.0391539  
H220     H      0.702870000000     0.898370000000     0.229650000000     0.0405905  
H221     H      0.621960000000     0.894730000000     0.229500000000     0.0403657  
H222     H      0.649700000000     0.849190000000     0.217310000000     0.0389562  
H223     H      0.703820000000     0.811890000000     0.305840000000     0.0396302  
H224     H      0.659000000000     0.788700000000     0.262290000000     0.0421883  
H225     H      0.354740000000     0.895320000000     0.513470000000     0.0420872  
H226     H      0.357050000000     0.831340000000     0.056020000000     0.0390301  
H227     H      0.306410000000     0.782870000000     0.037300000000     0.0409255  
H228     H      0.389610000000     0.889480000000     0.480680000000     0.0397906  
H229     H      0.315480000000     0.876190000000     0.466080000000     0.0400321  
H230     H      0.347840000000     0.830670000000     0.460690000000     0.0419434  
H231     H      0.386440000000     0.786580000000     0.044350000000     0.0409301  
H232     H      0.337740000000     0.769340000000     0.004280000000     0.038752   
H233     H      0.682890000000     0.832340000000     0.056380000000     0.0398886  
H234     H      0.682550000000     0.897020000000     0.016140000000     0.0413918  
H235     H      0.712750000000     0.877770000000     0.465150000000     0.0403246  
H236     H      0.647720000000     0.790370000000     0.047970000000     0.0406367  
H237     H      0.724170000000     0.778790000000     0.032100000000     0.0403679  
H238     H      0.686160000000     0.771460000000     0.501910000000     0.0392664  
H239     H      0.642590000000     0.895980000000     0.486410000000     0.0405689  
H240     H      0.676100000000     0.835240000000     0.461460000000     0.0415345  
H241     H      0.464120000000     0.800960000000     0.389130000000     0.0397353  
H242     H      0.466400000000     0.885040000000     0.388370000000     0.0401237  
H243     H      0.524520000000     0.908630000000     0.420460000000     0.0433628  
H244     H      0.501260000000     0.774340000000     0.364980000000     0.0433781  
H245     H      0.521040000000     0.774210000000     0.421050000000     0.0427715  
H246     H      0.559200000000     0.799210000000     0.396690000000     0.0391774  
H247     H      0.505460000000     0.908640000000     0.364040000000     0.0430908  
H248     H      0.561340000000     0.881350000000     0.396460000000     0.0390359  
H249     H      0.543730000000     0.887290000000     0.140960000000     0.0399887  
H250     H      0.552490000000     0.804190000000     0.140840000000     0.039695   
H251     H      0.495690000000     0.772170000000     0.170210000000     0.0427015  
H252     H      0.505070000000     0.908800000000     0.115180000000     0.0425586  
H253     H      0.481030000000     0.905920000000     0.170410000000     0.0430769  
H254     H      0.448880000000     0.875920000000     0.144580000000     0.0387206  
H255     H      0.519600000000     0.775070000000     0.114980000000     0.0436158  
H256     H      0.457450000000     0.794640000000     0.144530000000     0.0393088  
H257     H      0.130130000000     0.990210000000     0.733680000000     0.0411346  
H258     H      0.136300000000     0.000110000000     0.795830000000     0.0392015  
H259     H      0.184860000000     0.946970000000     0.811140000000     0.0421976  
H260     H      0.165580000000     0.019390000000     0.709770000000     0.0435422  
H261     H      0.186660000000     0.947090000000     0.710540000000     0.0430543  
H262     H      0.224870000000     0.978010000000     0.730490000000     0.0396571  
H263     H      0.181670000000     0.027300000000     0.809480000000     0.0425926  
H264     H      0.227730000000     0.972890000000     0.792450000000     0.0389215  
H265     H      0.223700000000     0.997170000000     0.965010000000     0.0389258  
H266     H      0.220810000000     0.996890000000     0.526390000000     0.039197   
H267     H      0.159040000000     0.034050000000     0.545300000000     0.043142   
H268     H      0.188900000000     0.963130000000     0.944380000000     0.0433164  
H269     H      0.165530000000     0.037630000000     0.944790000000     0.0431286  
H270     H      0.128330000000     0.002580000000     0.961910000000     0.0401781  
H271     H      0.185250000000     0.961430000000     0.545010000000     0.0427117  
H272     H      0.125210000000     0.999560000000     0.524150000000     0.0402687  
H273     H      0.019900000000     0.136940000000     0.785270000000     0.0413431  
H274     H      0.017720000000     0.127720000000     0.722430000000     0.040352   
H275     H      0.979650000000     0.186590000000     0.700490000000     0.0426608  
H276     H      0.057830000000     0.172730000000     0.800490000000     0.043327   
H277     H      0.986650000000     0.203010000000     0.800260000000     0.0429763  
H278     H      0.022060000000     0.231560000000     0.775860000000     0.038901   
H279     H      0.053130000000     0.159520000000     0.700390000000     0.0428591  
H280     H      0.017010000000     0.222850000000     0.716030000000     0.0386098  
H281     H      0.997040000000     0.127630000000     0.535200000000     0.0400728  
H282     H      0.993420000000     0.125630000000     0.973030000000     0.0403959  
H283     H      0.953790000000     0.185200000000     0.952740000000     0.0428679  
H284     H      0.031060000000     0.165550000000     0.552590000000     0.0429261  
H285     H      0.955620000000     0.186430000000     0.553460000000     0.0428763  
H286     H      0.988490000000     0.222640000000     0.533130000000     0.0388291  
H287     H      0.026900000000     0.160590000000     0.951980000000     0.0434902  
H288     H      0.988410000000     0.221020000000     0.971980000000     0.0390939  
H289     H      0.015800000000     0.880480000000     0.729250000000     0.0396194  
H290     H      0.019220000000     0.881670000000     0.791780000000     0.0398369  
H291     H      0.964820000000     0.837460000000     0.812920000000     0.0430552  
H292     H      0.037020000000     0.835420000000     0.710160000000     0.0427643  
H293     H      0.959260000000     0.835500000000     0.712650000000     0.0428915  
H294     H      0.982570000000     0.791020000000     0.731040000000     0.039163   
H295     H      0.042600000000     0.837430000000     0.810490000000     0.0433893  
H296     H      0.986080000000     0.792160000000     0.794140000000     0.0400843  
H297     H      0.806690000000     0.012840000000     0.799160000000     0.0396064  
H298     H      0.810670000000     0.014850000000     0.735420000000     0.0405266  
H299     H      0.875500000000     0.048720000000     0.716750000000     0.0431032  
H300     H      0.844270000000     0.979980000000     0.817990000000     0.0429048  
H301     H      0.862710000000     0.057280000000     0.816710000000     0.0427129  
H302     H      0.901660000000     0.022940000000     0.801040000000     0.0388933  
H303     H      0.845940000000     0.978560000000     0.717460000000     0.0433823  
H304     H      0.906090000000     0.014710000000     0.740850000000     0.0398102  
H305     H      0.006810000000     0.894950000000     0.513310000000     0.0397519  
H306     H      0.003430000000     0.886440000000     0.952280000000     0.0389483  
H307     H      0.054010000000     0.834000000000     0.938630000000     0.0428678  
H308     H      0.975890000000     0.860500000000     0.536790000000     0.0433111  
H309     H      0.050010000000     0.841960000000     0.538780000000     0.0432457  
H310     H      0.019720000000     0.800970000000     0.521470000000     0.0405121  
H311     H      0.975050000000     0.842640000000     0.937150000000     0.0428026  
H312     H      0.024990000000     0.793790000000     0.957900000000     0.0397986  
H313     H      0.881920000000     0.016080000000     0.528920000000     0.0397218  
H314     H      0.880480000000     0.020030000000     0.966370000000     0.0398444  
H315     H      0.830350000000     0.969910000000     0.946280000000     0.0433799  
H316     H      0.839680000000     0.040720000000     0.549300000000     0.0430575  
H317     H      0.832950000000     0.963370000000     0.546650000000     0.0425906  
H318     H      0.789780000000     0.990430000000     0.529200000000     0.0394022  
H319     H      0.837370000000     0.047120000000     0.948930000000     0.0430375  
H320     H      0.788330000000     0.994590000000     0.966860000000     0.0391836  
H321     H      0.158200000000     0.655720000000     0.790330000000     0.0422369  
H322     H      0.218440000000     0.663260000000     0.744960000000     0.0398745  
H323     H      0.199950000000     0.615520000000     0.703940000000     0.0407087  
H324     H      0.111650000000     0.686030000000     0.783670000000     0.0390743  
H325     H      0.102170000000     0.609440000000     0.772180000000     0.0397341  
H326     H      0.092650000000     0.642350000000     0.738790000000     0.0412502  
H327     H      0.204240000000     0.694050000000     0.711820000000     0.0416202  
H328     H      0.153180000000     0.643870000000     0.695280000000     0.0390843  
H329     H      0.194280000000     0.308660000000     0.693100000000     0.0416574  
H330     H      0.248050000000     0.312150000000     0.741070000000     0.03874    
H331     H      0.221120000000     0.363860000000     0.776010000000     0.040523   
H332     H      0.150280000000     0.273980000000     0.697710000000     0.0403291  
H333     H      0.130330000000     0.349040000000     0.703450000000     0.0388969  
H334     H      0.120540000000     0.319270000000     0.738430000000     0.0421328  
H335     H      0.233480000000     0.284840000000     0.775860000000     0.0398442  
H336     H      0.177060000000     0.332190000000     0.785900000000     0.0397566  
H337     H      0.105260000000     0.664650000000     0.483240000000     0.041191   
H338     H      0.164720000000     0.657910000000     0.939780000000     0.0392306  
H339     H      0.221180000000     0.702790000000     0.955170000000     0.0413397  
H340     H      0.110630000000     0.631560000000     0.517120000000     0.039821   
H341     H      0.129250000000     0.705950000000     0.528060000000     0.0404888  
H342     H      0.172450000000     0.670820000000     0.534300000000     0.0418499  
H343     H      0.208210000000     0.624770000000     0.948590000000     0.0404411  
H344     H      0.232420000000     0.671420000000     0.988690000000     0.0395485  
H345     H      0.156850000000     0.326660000000     0.543620000000     0.0412741  
H346     H      0.095080000000     0.321970000000     0.501190000000     0.0392186  
H347     H      0.111050000000     0.370620000000     0.960180000000     0.0411368  
H348     H      0.202850000000     0.295990000000     0.535480000000     0.0397424  
H349     H      0.212910000000     0.372630000000     0.525150000000     0.0397643  
H350     H      0.220580000000     0.340780000000     0.990970000000     0.0403229  
H351     H      0.105460000000     0.292030000000     0.966800000000     0.0410905  
H352     H      0.156450000000     0.341760000000     0.948900000000     0.0396994  
H353     H      0.205340000000     0.445110000000     0.857950000000     0.0388144  
H354     H      0.122540000000     0.440410000000     0.858580000000     0.0393409  
H355     H      0.093570000000     0.494850000000     0.891700000000     0.0428881  
H356     H      0.228710000000     0.485330000000     0.834730000000     0.0428321  
H357     H      0.228060000000     0.501570000000     0.891610000000     0.0428541  
H358     H      0.200670000000     0.539300000000     0.868500000000     0.0393593  
H359     H      0.094260000000     0.477440000000     0.835250000000     0.0427592  
H360     H      0.117030000000     0.534920000000     0.868240000000     0.0398851  
H361     H      0.122070000000     0.444950000000     0.615430000000     0.0398901  
H362     H      0.205060000000     0.448810000000     0.615690000000     0.0397175  
H363     H      0.228170000000     0.509210000000     0.585700000000     0.042991   
H364     H      0.094390000000     0.479770000000     0.640830000000     0.0432431  
H365     H      0.093510000000     0.503140000000     0.585510000000     0.043051   
H366     H      0.118010000000     0.540120000000     0.611010000000     0.0392953  
H367     H      0.229030000000     0.486220000000     0.641190000000     0.0431322  
H368     H      0.200300000000     0.544010000000     0.611070000000     0.0392903  
H369     H      0.365600000000     0.154020000000     0.694670000000     0.0386007  
H370     H      0.355510000000     0.215450000000     0.738300000000     0.0418226  
H371     H      0.313830000000     0.192790000000     0.783760000000     0.0402213  
H372     H      0.394890000000     0.109660000000     0.707230000000     0.0405781  
H373     H      0.313880000000     0.104340000000     0.708800000000     0.0408372  
H374     H      0.342000000000     0.088590000000     0.742830000000     0.0388808  
H375     H      0.387540000000     0.210280000000     0.772780000000     0.0397046  
H376     H      0.347390000000     0.148150000000     0.789080000000     0.0424543  
H377     H      0.692800000000     0.169190000000     0.805260000000     0.0410237  
H378     H      0.701290000000     0.105610000000     0.765830000000     0.0389939  
H379     H      0.652670000000     0.115890000000     0.723850000000     0.0417316  
H380     H      0.721600000000     0.216030000000     0.796090000000     0.0398098  
H381     H      0.644880000000     0.221980000000     0.784410000000     0.0399345  
H382     H      0.677220000000     0.229030000000     0.750410000000     0.0420012  
H383     H      0.731550000000     0.114490000000     0.731310000000     0.040549   
H384     H      0.679760000000     0.161300000000     0.710520000000     0.040511   
H385     H      0.318370000000     0.169080000000     0.951530000000     0.0414844  
H386     H      0.315990000000     0.106930000000     0.994450000000     0.0390741  
H387     H      0.365280000000     0.124010000000     0.535090000000     0.0408637  
H388     H      0.287570000000     0.214610000000     0.960630000000     0.0390358  
H389     H      0.364720000000     0.225110000000     0.969400000000     0.0400177  
H390     H      0.333930000000     0.232210000000     0.504270000000     0.0410031  
H391     H      0.286730000000     0.117150000000     0.529220000000     0.0410288  
H392     H      0.336080000000     0.169450000000     0.545860000000     0.0398484  
H393     H      0.665690000000     0.224170000000     0.001350000000     0.0413131  
H394     H      0.662050000000     0.162030000000     0.544100000000     0.041624   
H395     H      0.619510000000     0.104560000000     0.523720000000     0.0400236  
H396     H      0.699140000000     0.215660000000     0.968450000000     0.0401554  
H397     H      0.622120000000     0.205080000000     0.957470000000     0.0401804  
H398     H      0.654330000000     0.160740000000     0.949060000000     0.0401428  
H399     H      0.695450000000     0.117800000000     0.536640000000     0.0382167  
H400     H      0.653970000000     0.098450000000     0.490720000000     0.0413098  
H401     H      0.543470000000     0.200160000000     0.870080000000     0.0406681  
H402     H      0.544870000000     0.115300000000     0.866000000000     0.039935   
H403     H      0.489050000000     0.091570000000     0.899290000000     0.0426536  
H404     H      0.508380000000     0.226730000000     0.844220000000     0.043267   
H405     H      0.480430000000     0.225630000000     0.897280000000     0.0429468  
H406     H      0.447920000000     0.196310000000     0.871270000000     0.0390254  
H407     H      0.506100000000     0.092570000000     0.841120000000     0.0429782  
H408     H      0.449980000000     0.114630000000     0.874720000000     0.0391506  
H409     H      0.565110000000     0.135380000000     0.621090000000     0.0392217  
H410     H      0.562660000000     0.217060000000     0.624850000000     0.0390823  
H411     H      0.506830000000     0.238740000000     0.591020000000     0.0431728  
H412     H      0.532820000000     0.105780000000     0.647140000000     0.043118   
H413     H      0.504610000000     0.104620000000     0.594260000000     0.0430434  
H414     H      0.469490000000     0.131130000000     0.620220000000     0.0405578  
H415     H      0.523370000000     0.239820000000     0.649310000000     0.0429793  
H416     H      0.467940000000     0.216150000000     0.615810000000     0.0396558  
H417     H      0.774310000000     0.354260000000     0.754380000000     0.0415182  
H418     H      0.838640000000     0.363600000000     0.795860000000     0.0398084  
H419     H      0.892440000000     0.314770000000     0.781450000000     0.0413852  
H420     H      0.780800000000     0.381330000000     0.717860000000     0.0398293  
H421     H      0.794030000000     0.303790000000     0.714080000000     0.0395593  
H422     H      0.838290000000     0.335140000000     0.702780000000     0.0415364  
H423     H      0.882490000000     0.393050000000     0.782300000000     0.0415699  
H424     H      0.900650000000     0.340260000000     0.744800000000     0.0395542  
H425     H      0.829000000000     0.688390000000     0.804490000000     0.042424   
H426     H      0.884710000000     0.694470000000     0.756220000000     0.0399201  
H427     H      0.862410000000     0.645400000000     0.717300000000     0.0404311  
H428     H      0.782110000000     0.719040000000     0.800080000000     0.0380922  
H429     H      0.770660000000     0.642480000000     0.790180000000     0.039044   
H430     H      0.758490000000     0.674660000000     0.756830000000     0.0414463  
H431     H      0.867680000000     0.724340000000     0.723310000000     0.0405453  
H432     H      0.815220000000     0.673860000000     0.710190000000     0.0393189  
H433     H      0.747520000000     0.348470000000     0.015710000000     0.0415968  
H434     H      0.804590000000     0.353130000000     0.560060000000     0.0384617  
H435     H      0.855690000000     0.300900000000     0.548860000000     0.0413727  
H436     H      0.756980000000     0.378400000000     0.980670000000     0.0392129  
H437     H      0.768690000000     0.301640000000     0.973150000000     0.0375001  
H438     H      0.815060000000     0.332110000000     0.966170000000     0.0431284  
H439     H      0.851870000000     0.380730000000     0.551320000000     0.0394681  
H440     H      0.873760000000     0.328150000000     0.515050000000     0.04099    
H441     H      0.787840000000     0.691780000000     0.986720000000     0.0389723  
H442     H      0.853680000000     0.682190000000     0.530570000000     0.0434477  
H443     H      0.901750000000     0.626770000000     0.513980000000     0.0407078  
H444     H      0.804880000000     0.711500000000     0.949900000000     0.0419203  
H445     H      0.794590000000     0.632040000000     0.954090000000     0.0409046  
H446     H      0.842960000000     0.649960000000     0.938110000000     0.0380608  
H447     H      0.902270000000     0.704490000000     0.517560000000     0.038831   
H448     H      0.908680000000     0.651350000000     0.476450000000     0.0413346  
H449     H      0.782220000000     0.540870000000     0.875320000000     0.0406475  
H450     H      0.867010000000     0.546060000000     0.873590000000     0.0403035  
H451     H      0.895390000000     0.488070000000     0.903500000000     0.0421674  
H452     H      0.758510000000     0.503950000000     0.849350000000     0.0430867  
H453     H      0.761160000000     0.477790000000     0.903820000000     0.0424631  
H454     H      0.790550000000     0.445870000000     0.877450000000     0.0385573  
H455     H      0.892990000000     0.510860000000     0.847480000000     0.0430701  
H456     H      0.871110000000     0.450730000000     0.877950000000     0.0386353  
H457     H      0.860150000000     0.474330000000     0.617800000000     0.0409206  
H458     H      0.773060000000     0.481690000000     0.613940000000     0.0398809  
H459     H      0.753860000000     0.529870000000     0.654260000000     0.0430434  
H460     H      0.888610000000     0.514660000000     0.597990000000     0.0430935  
H461     H      0.888240000000     0.524990000000     0.654710000000     0.0431297  
H462     H      0.863600000000     0.567200000000     0.634280000000     0.0387683  
H463     H      0.755480000000     0.528280000000     0.595040000000     0.0429462  
H464     H      0.781510000000     0.571920000000     0.636020000000     0.0386435  
H465     H      0.326600000000     0.884110000000     0.767790000000     0.0417417  
H466     H      0.332970000000     0.823960000000     0.811440000000     0.0403201  
H467     H      0.297190000000     0.763610000000     0.791100000000     0.0404668  
H468     H      0.365530000000     0.883310000000     0.737280000000     0.0396095  
H469     H      0.296460000000     0.856760000000     0.718900000000     0.041017   
H470     H      0.336640000000     0.817390000000     0.716790000000     0.0412885  
H471     H      0.371990000000     0.784800000000     0.805000000000     0.0399098  
H472     H      0.334790000000     0.757870000000     0.760380000000     0.0399662  
H473     H      0.676320000000     0.915310000000     0.764090000000     0.0388995  
H474     H      0.671850000000     0.857700000000     0.811240000000     0.0423776  
H475     H      0.628520000000     0.796820000000     0.797210000000     0.0391416  
H476     H      0.702870000000     0.898370000000     0.729660000000     0.040605   
H477     H      0.621960000000     0.894730000000     0.729500000000     0.0403618  
H478     H      0.649700000000     0.849190000000     0.717310000000     0.0389496  
H479     H      0.703820000000     0.811890000000     0.805840000000     0.0396217  
H480     H      0.659000000000     0.788700000000     0.762290000000     0.0421817  
H481     H      0.354740000000     0.895320000000     0.013470000000     0.043173   
H482     H      0.357050000000     0.831340000000     0.556020000000     0.0389292  
H483     H      0.306410000000     0.782870000000     0.537300000000     0.040921   
H484     H      0.389610000000     0.889480000000     0.980680000000     0.0399413  
H485     H      0.315480000000     0.876190000000     0.966080000000     0.0398355  
H486     H      0.347840000000     0.830670000000     0.960690000000     0.0416941  
H487     H      0.386440000000     0.786580000000     0.544350000000     0.0408242  
H488     H      0.337740000000     0.769340000000     0.504280000000     0.0385203  
H489     H      0.682890000000     0.832340000000     0.556380000000     0.0398431  
H490     H      0.682550000000     0.897020000000     0.516140000000     0.0415832  
H491     H      0.712750000000     0.877770000000     0.965150000000     0.0405184  
H492     H      0.647720000000     0.790370000000     0.547970000000     0.0405714  
H493     H      0.724170000000     0.778790000000     0.532100000000     0.0403059  
H494     H      0.686160000000     0.771460000000     0.001910000000     0.0395283  
H495     H      0.642590000000     0.895980000000     0.986410000000     0.0394184  
H496     H      0.676100000000     0.835240000000     0.961460000000     0.0416296  
H497     H      0.464120000000     0.800960000000     0.889130000000     0.0396813  
H498     H      0.466400000000     0.885040000000     0.888370000000     0.0400851  
H499     H      0.524520000000     0.908630000000     0.920460000000     0.0432807  
H500     H      0.501260000000     0.774340000000     0.864990000000     0.0433421  
H501     H      0.521040000000     0.774210000000     0.921050000000     0.0426604  
H502     H      0.559200000000     0.799210000000     0.896700000000     0.0391265  
H503     H      0.505460000000     0.908640000000     0.864050000000     0.0430756  
H504     H      0.561340000000     0.881350000000     0.896460000000     0.0389953  
H505     H      0.543730000000     0.887290000000     0.640960000000     0.0399774  
H506     H      0.552490000000     0.804190000000     0.640840000000     0.0396808  
H507     H      0.495690000000     0.772170000000     0.670210000000     0.0426818  
H508     H      0.505070000000     0.908800000000     0.615180000000     0.042526   
H509     H      0.481030000000     0.905920000000     0.670410000000     0.0430688  
H510     H      0.448880000000     0.875920000000     0.644580000000     0.0387073  
H511     H      0.519600000000     0.775070000000     0.614980000000     0.0435752  
H512     H      0.457450000000     0.794640000000     0.644530000000     0.0392889  
N1       N      0.187360000000     0.942250000000     0.261060000000    -0.16603    
N2       N      0.171300000000     0.028170000000     0.259830000000    -0.165749   
N3       N      0.159620000000     0.040100000000     0.494960000000    -0.165813   
N4       N      0.188720000000     0.957900000000     0.494710000000    -0.166017   
N5       N      0.978660000000     0.195360000000     0.250440000000    -0.166063   
N6       N      0.059400000000     0.162270000000     0.250590000000    -0.165791   
N7       N      0.950280000000     0.186950000000     0.503130000000    -0.166618   
N8       N      0.033300000000     0.160700000000     0.502320000000    -0.166154   
N9       N      0.957010000000     0.834100000000     0.263020000000    -0.165535   
N10      N      0.044780000000     0.838170000000     0.260110000000    -0.165304   
N11      N      0.869730000000     0.057590000000     0.266670000000    -0.165921   
N12      N      0.840790000000     0.975190000000     0.267840000000    -0.165746   
N13      N      0.056600000000     0.834030000000     0.488880000000    -0.165102   
N14      N      0.970780000000     0.852680000000     0.986750000000    -0.165537   
N15      N      0.829740000000     0.961860000000     0.996370000000    -0.165869   
N16      N      0.840650000000     0.048720000000     0.499230000000    -0.165577   
N17      N      0.149450000000     0.608910000000     0.236710000000    -0.165834   
N18      N      0.160460000000     0.693510000000     0.249990000000    -0.165487   
N19      N      0.172530000000     0.359660000000     0.241450000000    -0.166324   
N20      N      0.193760000000     0.275930000000     0.235920000000    -0.166505   
N21      N      0.177960000000     0.707580000000     0.493540000000    -0.166546   
N22      N      0.157850000000     0.624920000000     0.481910000000    -0.166926   
N23      N      0.164280000000     0.375180000000     0.490750000000    -0.165929   
N24      N      0.152720000000     0.290490000000     0.502550000000    -0.16618    
N25      N      0.160680000000     0.500680000000     0.394910000000    -0.166533   
N26      N      0.161530000000     0.479590000000     0.331720000000    -0.166572   
N27      N      0.160810000000     0.507810000000     0.082330000000    -0.166332   
N28      N      0.161810000000     0.480760000000     0.144230000000    -0.166203   
N29      N      0.310260000000     0.145450000000     0.248300000000    -0.165845   
N30      N      0.394750000000     0.162450000000     0.238140000000    -0.166024   
N31      N      0.645130000000     0.171420000000     0.251580000000    -0.165645   
N32      N      0.730130000000     0.164540000000     0.264780000000    -0.166199   
N33      N      0.368510000000     0.176100000000     0.503430000000    -0.166484   
N34      N      0.283710000000     0.164100000000     0.493310000000    -0.166441   
N35      N      0.617500000000     0.153370000000     0.489360000000    -0.166528   
N36      N      0.700340000000     0.168490000000     0.504270000000    -0.166737   
N37      N      0.483320000000     0.158400000000     0.401730000000    -0.165314   
N38      N      0.511400000000     0.159540000000     0.339490000000    -0.164865   
N39      N      0.501420000000     0.171750000000     0.089510000000    -0.165073   
N40      N      0.529550000000     0.172980000000     0.151690000000    -0.165405   
N41      N      0.844880000000     0.305590000000     0.246550000000    -0.165943   
N42      N      0.829040000000     0.390930000000     0.251780000000    -0.165779   
N43      N      0.814680000000     0.640610000000     0.252490000000    -0.166608   
N44      N      0.827340000000     0.724970000000     0.263500000000    -0.166572   
N45      N      0.816100000000     0.297920000000     0.508360000000    -0.166324   
N46      N      0.803750000000     0.382880000000     0.516360000000    -0.166953   
N47      N      0.848750000000     0.625280000000     0.983320000000    -0.165768   
N48      N      0.850220000000     0.712550000000     0.986860000000    -0.165867   
N49      N      0.828440000000     0.482690000000     0.406930000000    -0.166347   
N50      N      0.825490000000     0.511300000000     0.345400000000    -0.165714   
N51      N      0.820950000000     0.528290000000     0.158040000000    -0.165709   
N52      N      0.821540000000     0.516250000000     0.092950000000    -0.165524   
N53      N      0.293710000000     0.808310000000     0.253710000000    -0.166619   
N54      N      0.371490000000     0.836230000000     0.272720000000    -0.166801   
N55      N      0.621720000000     0.843060000000     0.261430000000    -0.166057   
N56      N      0.706950000000     0.857810000000     0.269460000000    -0.165926   
N57      N      0.307580000000     0.827220000000     0.499680000000    -0.165878   
N58      N      0.391370000000     0.840510000000     0.514780000000    -0.166009   
N59      N      0.721350000000     0.826420000000     0.996770000000    -0.166926   
N60      N      0.642180000000     0.844960000000     0.019040000000    -0.16676    
N61      N      0.524260000000     0.841330000000     0.424110000000    -0.166121   
N62      N      0.500230000000     0.841660000000     0.361280000000    -0.165852   
N63      N      0.487090000000     0.838760000000     0.173620000000    -0.16624    
N64      N      0.515150000000     0.842390000000     0.111920000000    -0.165993   
N65      N      0.187360000000     0.942250000000     0.761060000000    -0.166027   
N66      N      0.171300000000     0.028170000000     0.759830000000    -0.165751   
N67      N      0.159620000000     0.040100000000     0.994960000000    -0.166116   
N68      N      0.188720000000     0.957900000000     0.994710000000    -0.166318   
N69      N      0.978660000000     0.195360000000     0.750440000000    -0.166066   
N70      N      0.059400000000     0.162270000000     0.750590000000    -0.165791   
N71      N      0.950280000000     0.186950000000     0.003130000000    -0.166308   
N72      N      0.033300000000     0.160700000000     0.002320000000    -0.165836   
N73      N      0.957010000000     0.834100000000     0.763020000000    -0.165533   
N74      N      0.044780000000     0.838170000000     0.760110000000    -0.165303   
N75      N      0.869730000000     0.057590000000     0.766670000000    -0.165921   
N76      N      0.840790000000     0.975190000000     0.767840000000    -0.165698   
N77      N      0.056600000000     0.834030000000     0.988880000000    -0.165405   
N78      N      0.970780000000     0.852680000000     0.486750000000    -0.165239   
N79      N      0.829740000000     0.961860000000     0.496370000000    -0.165588   
N80      N      0.840650000000     0.048720000000     0.999230000000    -0.16672    
N81      N      0.149450000000     0.608910000000     0.736710000000    -0.165827   
N82      N      0.160460000000     0.693510000000     0.749990000000    -0.165491   
N83      N      0.172530000000     0.359660000000     0.741450000000    -0.166329   
N84      N      0.193760000000     0.275930000000     0.735920000000    -0.166453   
N85      N      0.177960000000     0.707580000000     0.993540000000    -0.16697    
N86      N      0.157850000000     0.624920000000     0.981910000000    -0.166735   
N87      N      0.164280000000     0.375180000000     0.990750000000    -0.16665    
N88      N      0.152720000000     0.290490000000     0.002540000000    -0.165605   
N89      N      0.160680000000     0.500680000000     0.894910000000    -0.166529   
N90      N      0.161530000000     0.479590000000     0.831720000000    -0.166572   
N91      N      0.160810000000     0.507810000000     0.582330000000    -0.166401   
N92      N      0.161810000000     0.480760000000     0.644230000000    -0.166206   
N93      N      0.310260000000     0.145450000000     0.748300000000    -0.165798   
N94      N      0.394750000000     0.162450000000     0.738140000000    -0.166036   
N95      N      0.645130000000     0.171420000000     0.751580000000    -0.165649   
N96      N      0.730130000000     0.164540000000     0.764780000000    -0.166198   
N97      N      0.368510000000     0.176100000000     0.003430000000    -0.165876   
N98      N      0.283710000000     0.164100000000     0.993310000000    -0.167022   
N99      N      0.617500000000     0.153370000000     0.989360000000    -0.167225   
N100     N      0.700340000000     0.168490000000     0.004270000000    -0.166169   
N101     N      0.483320000000     0.158400000000     0.901730000000    -0.165311   
N102     N      0.511400000000     0.159540000000     0.839490000000    -0.16486    
N103     N      0.501420000000     0.171750000000     0.589510000000    -0.165134   
N104     N      0.529550000000     0.172980000000     0.651690000000    -0.165412   
N105     N      0.844880000000     0.305590000000     0.746550000000    -0.165943   
N106     N      0.829040000000     0.390930000000     0.751780000000    -0.165774   
N107     N      0.814680000000     0.640610000000     0.752490000000    -0.166609   
N108     N      0.827340000000     0.724970000000     0.763500000000    -0.166569   
N109     N      0.816100000000     0.297920000000     0.008360000000    -0.166075   
N110     N      0.803750000000     0.382880000000     0.016360000000    -0.166352   
N111     N      0.848750000000     0.625280000000     0.483320000000    -0.165951   
N112     N      0.850220000000     0.712550000000     0.486860000000    -0.165433   
N113     N      0.828440000000     0.482690000000     0.906930000000    -0.166387   
N114     N      0.825490000000     0.511300000000     0.845400000000    -0.165659   
N115     N      0.820950000000     0.528290000000     0.658040000000    -0.16571    
N116     N      0.821540000000     0.516250000000     0.592950000000    -0.165561   
N117     N      0.293710000000     0.808310000000     0.753710000000    -0.16662    
N118     N      0.371490000000     0.836230000000     0.772720000000    -0.166806   
N119     N      0.621720000000     0.843060000000     0.761430000000    -0.16606    
N120     N      0.706950000000     0.857810000000     0.769460000000    -0.165921   
N121     N      0.307580000000     0.827220000000     0.999680000000    -0.166305   
N122     N      0.391370000000     0.840510000000     0.014780000000    -0.165359   
N123     N      0.721350000000     0.826420000000     0.496770000000    -0.166718   
N124     N      0.642180000000     0.844960000000     0.519040000000    -0.166606   
N125     N      0.524260000000     0.841330000000     0.924110000000    -0.16619    
N126     N      0.500230000000     0.841660000000     0.861280000000    -0.165849   
N127     N      0.487090000000     0.838760000000     0.673620000000    -0.166242   
N128     N      0.515150000000     0.842390000000     0.611920000000    -0.165988   
O1       O      0.579300000000     0.878150000000     0.018030000000    -0.399734   
O2       O      0.453160000000     0.875880000000     0.014750000000    -0.399156   
O3       O      0.514080000000     0.876960000000     0.064830000000    -0.397022   
O4       O      0.518900000000     0.876600000000     0.470310000000    -0.400412   
O5       O      0.519520000000     0.807190000000     0.471140000000    -0.397781   
O6       O      0.516180000000     0.807580000000     0.065460000000    -0.401622   
O7       O      0.454000000000     0.806470000000     0.518150000000    -0.3958     
O8       O      0.580820000000     0.808670000000     0.520530000000    -0.396994   
O9       O      0.432310000000     0.872840000000     0.268720000000    -0.397581   
O10      O      0.558690000000     0.876450000000     0.262560000000    -0.39635    
O11      O      0.491160000000     0.874120000000     0.219750000000    -0.401651   
O12      O      0.499230000000     0.875510000000     0.313960000000    -0.397111   
O13      O      0.500610000000     0.806120000000     0.315050000000    -0.400789   
O14      O      0.493810000000     0.804750000000     0.220660000000    -0.397014   
O15      O      0.560650000000     0.807070000000     0.266300000000    -0.398838   
O16      O      0.434560000000     0.803380000000     0.271730000000    -0.399213   
O17      O      0.803070000000     0.570900000000     0.989450000000    -0.395699   
O18      O      0.780400000000     0.448050000000     0.004500000000    -0.397299   
O19      O      0.789720000000     0.518840000000     0.044800000000    -0.395116   
O20      O      0.793040000000     0.498800000000     0.451540000000    -0.401118   
O21      O      0.861700000000     0.488240000000     0.454340000000    -0.396552   
O22      O      0.858270000000     0.507840000000     0.047670000000    -0.401186   
O23      O      0.848900000000     0.437100000000     0.509770000000    -0.398766   
O24      O      0.871440000000     0.559570000000     0.494640000000    -0.399165   
O25      O      0.791180000000     0.451070000000     0.247090000000    -0.395679   
O26      O      0.784180000000     0.576680000000     0.256840000000    -0.397506   
O27      O      0.786400000000     0.520570000000     0.204720000000    -0.395264   
O28      O      0.789590000000     0.508470000000     0.299030000000    -0.396498   
O29      O      0.858370000000     0.518580000000     0.298220000000    -0.399292   
O30      O      0.855850000000     0.517720000000     0.203980000000    -0.400349   
O31      O      0.853040000000     0.580860000000     0.249480000000    -0.398295   
O32      O      0.860320000000     0.454900000000     0.252630000000    -0.398111   
O33      O      0.558520000000     0.193370000000     0.489650000000    -0.398209   
O34      O      0.432850000000     0.205110000000     0.496190000000    -0.398092   
O35      O      0.500230000000     0.203190000000     0.041120000000    -0.393547   
O36      O      0.490860000000     0.195640000000     0.446860000000    -0.39981    
O37      O      0.485730000000     0.126550000000     0.449990000000    -0.393299   
O38      O      0.494840000000     0.134130000000     0.044400000000    -0.398506   
O39      O      0.427410000000     0.136130000000     0.501640000000    -0.398366   
O40      O      0.552950000000     0.124430000000     0.495280000000    -0.398901   
O41      O      0.455460000000     0.198710000000     0.244440000000    -0.398413   
O42      O      0.581460000000     0.203540000000     0.251480000000    -0.397707   
O43      O      0.523150000000     0.204820000000     0.199740000000    -0.393603   
O44      O      0.514040000000     0.197180000000     0.294130000000    -0.398659   
O45      O      0.516250000000     0.127920000000     0.291260000000    -0.393544   
O46      O      0.526120000000     0.135580000000     0.197020000000    -0.399602   
O47      O      0.584430000000     0.134340000000     0.246800000000    -0.396054   
O48      O      0.458110000000     0.129570000000     0.239060000000    -0.395716   
O49      O      0.124890000000     0.562720000000     0.489510000000    -0.398207   
O50      O      0.128070000000     0.436420000000     0.487560000000    -0.397696   
O51      O      0.126480000000     0.499550000000     0.035860000000    -0.399719   
O52      O      0.126110000000     0.500340000000     0.441630000000    -0.400797   
O53      O      0.195550000000     0.496360000000     0.441490000000    -0.399407   
O54      O      0.195620000000     0.506880000000     0.035580000000    -0.398356   
O55      O      0.197270000000     0.438270000000     0.493330000000    -0.397375   
O56      O      0.194070000000     0.563800000000     0.483280000000    -0.399025   
O57      O      0.132580000000     0.418020000000     0.235430000000    -0.396757   
O58      O      0.120730000000     0.543850000000     0.240740000000    -0.396133   
O59      O      0.126670000000     0.483190000000     0.190810000000    -0.399146   
O60      O      0.126740000000     0.477920000000     0.285060000000    -0.399848   
O61      O      0.195210000000     0.490130000000     0.285250000000    -0.399995   
O62      O      0.196200000000     0.483450000000     0.191080000000    -0.399629   
O63      O      0.189620000000     0.550080000000     0.234640000000    -0.396557   
O64      O      0.201410000000     0.424610000000     0.241960000000    -0.397743   
O65      O      0.838370000000     0.897900000000     0.019750000000    -0.395467   
O66      O      0.858070000000     0.773080000000     0.014230000000    -0.395892   
O67      O      0.910260000000     0.845320000000     0.014600000000    -0.398852   
O68      O      0.785820000000     0.824630000000     0.019470000000    -0.396639   
O69      O      0.780550000000     0.837910000000     0.468540000000    -0.397679   
O70      O      0.907140000000     0.842550000000     0.462760000000    -0.3937     
O71      O      0.844480000000     0.776270000000     0.463260000000    -0.395855   
O72      O      0.840540000000     0.902340000000     0.467950000000    -0.398058   
O73      O      0.827500000000     0.785710000000     0.291100000000    -0.397346   
O74      O      0.837360000000     0.912040000000     0.293400000000    -0.394826   
O75      O      0.769940000000     0.851980000000     0.293800000000    -0.398267   
O76      O      0.896160000000     0.843410000000     0.290650000000    -0.39634    
O77      O      0.894250000000     0.845280000000     0.238750000000    -0.39943    
O78      O      0.768170000000     0.856990000000     0.241890000000    -0.396221   
O79      O      0.836540000000     0.913410000000     0.241490000000    -0.402576   
O80      O      0.827790000000     0.788010000000     0.239040000000    -0.399905   
O81      O      0.830680000000     0.112330000000     0.475660000000    -0.397933   
O82      O      0.818140000000     0.237870000000     0.480100000000    -0.400099   
O83      O      0.887620000000     0.181120000000     0.477680000000    -0.400855   
O84      O      0.761960000000     0.171390000000     0.478140000000    -0.401376   
O85      O      0.762750000000     0.164870000000     0.029990000000    -0.396466   
O86      O      0.888800000000     0.177680000000     0.029560000000    -0.399673   
O87      O      0.821260000000     0.234390000000     0.032070000000    -0.397701   
O88      O      0.832260000000     0.108760000000     0.027520000000    -0.399405   
O89      O      0.840280000000     0.239520000000     0.226720000000    -0.395892   
O90      O      0.862460000000     0.115940000000     0.236550000000    -0.400549   
O91      O      0.789730000000     0.165890000000     0.235680000000    -0.397833   
O92      O      0.914060000000     0.187500000000     0.227840000000    -0.396746   
O93      O      0.919090000000     0.189660000000     0.279630000000    -0.398921   
O94      O      0.793020000000     0.182720000000     0.286110000000    -0.396122   
O95      O      0.860700000000     0.122740000000     0.288220000000    -0.394907   
O96      O      0.853570000000     0.248310000000     0.277370000000    -0.397351   
O97      O      0.163450000000     0.227270000000     0.025870000000    -0.396759   
O98      O      0.158390000000     0.101230000000     0.022430000000    -0.39941    
O99      O      0.223510000000     0.160630000000     0.021510000000    -0.398061   
O100     O      0.097260000000     0.165600000000     0.026390000000    -0.397614   
O101     O      0.094210000000     0.162240000000     0.474560000000    -0.401236   
O102     O      0.219920000000     0.172670000000     0.470320000000    -0.397604   
O103     O      0.161240000000     0.103960000000     0.470570000000    -0.396304   
O104     O      0.150800000000     0.229900000000     0.474740000000    -0.397783   
O105     O      0.192000000000     0.219270000000     0.268250000000    -0.396096   
O106     O      0.180550000000     0.093800000000     0.280840000000    -0.393315   
O107     O      0.248680000000     0.152890000000     0.274220000000    -0.400441   
O108     O      0.122930000000     0.161960000000     0.275280000000    -0.39924    
O109     O      0.120750000000     0.152860000000     0.223810000000    -0.397942   
O110     O      0.247310000000     0.141830000000     0.222850000000    -0.394866   
O111     O      0.178500000000     0.085930000000     0.229270000000    -0.404051   
O112     O      0.187670000000     0.209970000000     0.216760000000    -0.400716   
O113     O      0.186630000000     0.769720000000     0.468170000000    -0.396926   
O114     O      0.184170000000     0.896020000000     0.468210000000    -0.398113   
O115     O      0.247880000000     0.834900000000     0.471160000000    -0.396384   
O116     O      0.121190000000     0.831870000000     0.465170000000    -0.393951   
O117     O      0.117440000000     0.837390000000     0.016850000000    -0.398852   
O118     O      0.243090000000     0.825160000000     0.022560000000    -0.395401   
O119     O      0.185790000000     0.894980000000     0.020130000000    -0.397897   
O120     O      0.173470000000     0.769510000000     0.019270000000    -0.399536   
O121     O      0.165550000000     0.757810000000     0.227610000000    -0.399429   
O122     O      0.172890000000     0.882890000000     0.233870000000    -0.403882   
O123     O      0.231160000000     0.817920000000     0.229490000000    -0.400719   
O124     O      0.105000000000     0.825450000000     0.232460000000    -0.397548   
O125     O      0.107470000000     0.826430000000     0.284360000000    -0.397257   
O126     O      0.232090000000     0.804700000000     0.280570000000    -0.39581    
O127     O      0.180380000000     0.878410000000     0.285390000000    -0.391978   
O128     O      0.158540000000     0.753210000000     0.279260000000    -0.392627   
O129     O      0.579300000000     0.878150000000     0.518030000000    -0.399882   
O130     O      0.453160000000     0.875880000000     0.514750000000    -0.399384   
O131     O      0.514080000000     0.876960000000     0.564830000000    -0.396907   
O132     O      0.518900000000     0.876600000000     0.970310000000    -0.401108   
O133     O      0.519520000000     0.807190000000     0.971140000000    -0.3985     
O134     O      0.516180000000     0.807580000000     0.565460000000    -0.401506   
O135     O      0.454000000000     0.806470000000     0.018150000000    -0.39567    
O136     O      0.580820000000     0.808670000000     0.020530000000    -0.396917   
O137     O      0.432310000000     0.872840000000     0.768730000000    -0.397591   
O138     O      0.558690000000     0.876450000000     0.762560000000    -0.396349   
O139     O      0.491160000000     0.874120000000     0.719750000000    -0.40166    
O140     O      0.499230000000     0.875510000000     0.813960000000    -0.397102   
O141     O      0.500610000000     0.806120000000     0.815050000000    -0.400792   
O142     O      0.493810000000     0.804750000000     0.720660000000    -0.397022   
O143     O      0.560650000000     0.807070000000     0.766300000000    -0.398843   
O144     O      0.434560000000     0.803380000000     0.771730000000    -0.399224   
O145     O      0.803070000000     0.570900000000     0.489450000000    -0.395769   
O146     O      0.780400000000     0.448050000000     0.504500000000    -0.398229   
O147     O      0.789720000000     0.518840000000     0.544800000000    -0.395845   
O148     O      0.793040000000     0.498800000000     0.951530000000    -0.40097    
O149     O      0.861700000000     0.488240000000     0.954340000000    -0.397275   
O150     O      0.858270000000     0.507840000000     0.547670000000    -0.401064   
O151     O      0.848900000000     0.437100000000     0.009770000000    -0.398768   
O152     O      0.871440000000     0.559570000000     0.994640000000    -0.399989   
O153     O      0.791180000000     0.451070000000     0.747090000000    -0.395683   
O154     O      0.784180000000     0.576680000000     0.756840000000    -0.397502   
O155     O      0.786400000000     0.520570000000     0.704720000000    -0.395257   
O156     O      0.789590000000     0.508470000000     0.799040000000    -0.396555   
O157     O      0.858370000000     0.518580000000     0.798220000000    -0.399406   
O158     O      0.855850000000     0.517720000000     0.703980000000    -0.400354   
O159     O      0.853040000000     0.580860000000     0.749480000000    -0.398296   
O160     O      0.860320000000     0.454900000000     0.752630000000    -0.398104   
O161     O      0.558520000000     0.193370000000     0.989650000000    -0.39835    
O162     O      0.432850000000     0.205110000000     0.996190000000    -0.398985   
O163     O      0.500230000000     0.203190000000     0.541120000000    -0.394207   
O164     O      0.490860000000     0.195640000000     0.946860000000    -0.399716   
O165     O      0.485730000000     0.126550000000     0.949990000000    -0.393119   
O166     O      0.494840000000     0.134130000000     0.544400000000    -0.399101   
O167     O      0.427410000000     0.136130000000     0.001640000000    -0.397805   
O168     O      0.552950000000     0.124430000000     0.995280000000    -0.399026   
O169     O      0.455460000000     0.198710000000     0.744440000000    -0.398404   
O170     O      0.581460000000     0.203540000000     0.751480000000    -0.397711   
O171     O      0.523150000000     0.204820000000     0.699740000000    -0.39363    
O172     O      0.514040000000     0.197180000000     0.794130000000    -0.398646   
O173     O      0.516250000000     0.127920000000     0.791260000000    -0.393456   
O174     O      0.526120000000     0.135580000000     0.697020000000    -0.399703   
O175     O      0.584430000000     0.134340000000     0.746800000000    -0.396051   
O176     O      0.458110000000     0.129570000000     0.739060000000    -0.39573    
O177     O      0.124890000000     0.562720000000     0.989510000000    -0.398356   
O178     O      0.128070000000     0.436420000000     0.987570000000    -0.397853   
O179     O      0.126480000000     0.499550000000     0.535860000000    -0.400432   
O180     O      0.126110000000     0.500340000000     0.941630000000    -0.400696   
O181     O      0.195550000000     0.496360000000     0.941490000000    -0.399304   
O182     O      0.195620000000     0.506880000000     0.535580000000    -0.399081   
O183     O      0.197270000000     0.438270000000     0.993330000000    -0.39761    
O184     O      0.194070000000     0.563800000000     0.983280000000    -0.399075   
O185     O      0.132580000000     0.418020000000     0.735430000000    -0.396758   
O186     O      0.120730000000     0.543850000000     0.740740000000    -0.396133   
O187     O      0.126670000000     0.483190000000     0.690810000000    -0.399149   
O188     O      0.126740000000     0.477920000000     0.785060000000    -0.399848   
O189     O      0.195210000000     0.490130000000     0.785250000000    -0.399998   
O190     O      0.196200000000     0.483450000000     0.691080000000    -0.39964    
O191     O      0.189620000000     0.550080000000     0.734640000000    -0.396561   
O192     O      0.201410000000     0.424610000000     0.741960000000    -0.397749   
O193     O      0.838370000000     0.897900000000     0.519750000000    -0.39634    
O194     O      0.858070000000     0.773080000000     0.514230000000    -0.396756   
O195     O      0.910260000000     0.845320000000     0.514600000000    -0.399725   
O196     O      0.785820000000     0.824630000000     0.519470000000    -0.397528   
O197     O      0.780550000000     0.837910000000     0.968540000000    -0.397399   
O198     O      0.907140000000     0.842550000000     0.962760000000    -0.393445   
O199     O      0.844480000000     0.776270000000     0.963260000000    -0.3956     
O200     O      0.840540000000     0.902340000000     0.967950000000    -0.397792   
O201     O      0.827500000000     0.785710000000     0.791100000000    -0.397442   
O202     O      0.837360000000     0.912040000000     0.793400000000    -0.394771   
O203     O      0.769940000000     0.851980000000     0.793800000000    -0.398269   
O204     O      0.896160000000     0.843410000000     0.790650000000    -0.39634    
O205     O      0.894250000000     0.845280000000     0.738750000000    -0.399424   
O206     O      0.768170000000     0.856990000000     0.741890000000    -0.396217   
O207     O      0.836540000000     0.913410000000     0.741480000000    -0.402419   
O208     O      0.827790000000     0.788010000000     0.739040000000    -0.399806   
O209     O      0.830680000000     0.112330000000     0.975660000000    -0.399071   
O210     O      0.818140000000     0.237870000000     0.980100000000    -0.400996   
O211     O      0.887620000000     0.181120000000     0.977680000000    -0.401744   
O212     O      0.761960000000     0.171390000000     0.978140000000    -0.402222   
O213     O      0.762750000000     0.164870000000     0.529990000000    -0.396216   
O214     O      0.888800000000     0.177680000000     0.529560000000    -0.399391   
O215     O      0.821260000000     0.234390000000     0.532070000000    -0.39742    
O216     O      0.832260000000     0.108760000000     0.527520000000    -0.399062   
O217     O      0.840280000000     0.239520000000     0.726720000000    -0.395892   
O218     O      0.862460000000     0.115940000000     0.736550000000    -0.400547   
O219     O      0.789730000000     0.165890000000     0.735680000000    -0.397833   
O220     O      0.914060000000     0.187500000000     0.727840000000    -0.396745   
O221     O      0.919090000000     0.189660000000     0.779630000000    -0.398922   
O222     O      0.793020000000     0.182720000000     0.786110000000    -0.396123   
O223     O      0.860700000000     0.122740000000     0.788220000000    -0.394906   
O224     O      0.853570000000     0.248310000000     0.777370000000    -0.397354   
O225     O      0.163450000000     0.227270000000     0.525870000000    -0.396562   
O226     O      0.158390000000     0.101230000000     0.522430000000    -0.400221   
O227     O      0.223510000000     0.160630000000     0.521510000000    -0.398864   
O228     O      0.097260000000     0.165600000000     0.526390000000    -0.397389   
O229     O      0.094210000000     0.162240000000     0.974560000000    -0.402056   
O230     O      0.219920000000     0.172670000000     0.970320000000    -0.39742    
O231     O      0.161240000000     0.103960000000     0.970570000000    -0.396093   
O232     O      0.150800000000     0.229900000000     0.974740000000    -0.398589   
O233     O      0.192000000000     0.219270000000     0.768250000000    -0.396053   
O234     O      0.180550000000     0.093800000000     0.780840000000    -0.393239   
O235     O      0.248680000000     0.152890000000     0.774220000000    -0.400397   
O236     O      0.122930000000     0.161960000000     0.775280000000    -0.399246   
O237     O      0.120750000000     0.152860000000     0.723810000000    -0.397951   
O238     O      0.247310000000     0.141830000000     0.722840000000    -0.394734   
O239     O      0.178500000000     0.085930000000     0.729270000000    -0.404156   
O240     O      0.187670000000     0.209970000000     0.716750000000    -0.400591   
O241     O      0.186630000000     0.769720000000     0.968170000000    -0.396582   
O242     O      0.184170000000     0.896020000000     0.968210000000    -0.397843   
O243     O      0.247880000000     0.834900000000     0.971160000000    -0.396135   
O244     O      0.121190000000     0.831870000000     0.965170000000    -0.39369    
O245     O      0.117440000000     0.837390000000     0.516850000000    -0.399726   
O246     O      0.243090000000     0.825160000000     0.522560000000    -0.396276   
O247     O      0.185790000000     0.894980000000     0.520130000000    -0.398772   
O248     O      0.173470000000     0.769510000000     0.519270000000    -0.400301   
O249     O      0.165550000000     0.757810000000     0.727610000000    -0.399433   
O250     O      0.172890000000     0.882890000000     0.733870000000    -0.403881   
O251     O      0.231160000000     0.817920000000     0.729490000000    -0.400721   
O252     O      0.105000000000     0.825450000000     0.732460000000    -0.397548   
O253     O      0.107470000000     0.826430000000     0.784360000000    -0.397256   
O254     O      0.232090000000     0.804700000000     0.780570000000    -0.395811   
O255     O      0.180380000000     0.878410000000     0.785390000000    -0.391976   
O256     O      0.158540000000     0.753210000000     0.779260000000    -0.392629   


