data_structure

_audit_creation_method RASPA-1.0
_audit_creation_date 2023-5-19
_audit_author_name 'Poobodin Mano'

_cell_length_a    42.7904
_cell_length_b    42.5395
_cell_length_c    41.832
_cell_angle_alpha 90
_cell_angle_beta  90
_cell_angle_gamma 90
_cell_volume      76146

_symmetry_cell_setting          triclinic
_symmetry_space_group_name_Hall 'P 1'
_symmetry_space_group_name_H-M  'P 1'
_symmetry_Int_Tables_number     1

_symmetry_equiv_pos_as_xyz 'x,y,z'

loop_
_atom_site_label
_atom_site_type_symbol
_atom_site_fract_x
_atom_site_fract_y
_atom_site_fract_z
_atom_site_charge
C1       C      0.488320000000     0.074790000000     0.250210000000     0.398663   
C2       C      0.003310000000     0.451210000000     0.260320000000     0.403693   
C3       C      0.434440000000     0.004450000000     0.256990000000     0.39526    
C4       C      0.057560000000     0.520900000000     0.253280000000     0.402901   
C5       C      0.007230000000     0.197070000000     0.266260000000     0.404754   
C6       C      0.007790000000     0.322060000000     0.270080000000     0.400663   
C7       C      0.006020000000     0.260240000000     0.204430000000     0.409184   
C8       C      0.007910000000     0.257290000000     0.331100000000     0.401833   
C9       C      0.306220000000     0.007000000000     0.255570000000     0.400261   
C10      C      0.182640000000     0.009070000000     0.266320000000     0.394483   
C11      C      0.238660000000     0.014530000000     0.197490000000     0.395262   
C12      C      0.251280000000     0.001280000000     0.323560000000     0.386479   
C13      C      0.249200000000     0.012180000000     0.067230000000     0.395667   
C14      C      0.277820000000     0.488890000000     0.445610000000     0.402918   
C15      C      0.268440000000     0.061590000000     0.996080000000     0.406118   
C16      C      0.259260000000     0.438510000000     0.516490000000     0.40169    
C17      C      0.990950000000     0.267050000000     0.079530000000     0.400516   
C18      C      0.509060000000     0.240800000000     0.457090000000     0.405543   
C19      C      0.060890000000     0.247580000000     0.028510000000     0.402611   
C20      C      0.438860000000     0.260780000000     0.509120000000     0.40061    
C21      C      0.253010000000     0.186650000000     0.011350000000     0.397895   
C22      C      0.246010000000     0.310840000000     0.024090000000     0.39777    
C23      C      0.188700000000     0.243010000000     0.026600000000     0.396823   
C24      C      0.311560000000     0.252260000000     0.008710000000     0.395979   
C25      C      0.362770000000     0.232810000000     0.026290000000    -0.012569   
C26      C      0.358770000000     0.265390000000     0.476350000000    -0.0396047  
C27      C      0.390080000000     0.252520000000     0.037440000000    -0.00877818 
C28      C      0.388880000000     0.283630000000     0.486270000000     0.0742571  
C29      C      0.407490000000     0.292950000000     0.456210000000    -0.187095   
C30      C      0.139620000000     0.219350000000     0.007470000000    -0.0134079  
C31      C      0.141950000000     0.244940000000     0.061380000000    -0.0392887  
C32      C      0.108080000000     0.234660000000     0.501040000000    -0.0103931  
C33      C      0.110540000000     0.261580000000     0.554850000000     0.0756495  
C34      C      0.092580000000     0.266070000000     0.086480000000    -0.189601   
C35      C      0.223590000000     0.361190000000     0.505680000000    -0.0125216  
C36      C      0.256930000000     0.359530000000     0.054690000000    -0.0400298  
C37      C      0.241920000000     0.389240000000     0.493210000000    -0.0103348  
C38      C      0.276100000000     0.388050000000     0.042740000000     0.0760436  
C39      C      0.287260000000     0.407290000000     0.071910000000    -0.18687    
C40      C      0.270090000000     0.135370000000     0.032290000000    -0.0130902  
C41      C      0.235750000000     0.138610000000     0.483210000000    -0.0416332  
C42      C      0.290520000000     0.111160000000     0.015220000000    -0.0111521  
C43      C      0.255180000000     0.112370000000     0.467630000000     0.0783866  
C44      C      0.235720000000     0.093490000000     0.443370000000    -0.187403   
C45      C      0.268900000000     0.024020000000     0.375020000000    -0.0178539  
C46      C      0.247440000000     0.468780000000     0.372720000000    -0.0425763  
C47      C      0.295830000000     0.012380000000     0.396210000000    -0.0124355  
C48      C      0.273850000000     0.457990000000     0.395150000000     0.0790446  
C49      C      0.263880000000     0.429550000000     0.415490000000    -0.191775   
C50      C      0.262250000000     0.041380000000     0.116380000000    -0.0127529  
C51      C      0.211410000000     0.513030000000     0.112030000000    -0.0396053  
C52      C      0.266910000000     0.029160000000     0.150350000000    -0.0117018  
C53      C      0.215950000000     0.498560000000     0.145580000000     0.0757154  
C54      C      0.183760000000     0.494610000000     0.161740000000    -0.18891    
C55      C      0.033550000000     0.268510000000     0.382820000000    -0.013844   
C56      C      0.480540000000     0.242170000000     0.380470000000    -0.040739   
C57      C      0.042720000000     0.246340000000     0.410030000000    -0.00741976 
C58      C      0.491620000000     0.217940000000     0.405150000000     0.0757395  
C59      C      0.463480000000     0.203300000000     0.422690000000    -0.186776   
C60      C      0.003850000000     0.297130000000     0.128030000000    -0.0123089  
C61      C      0.465720000000     0.252330000000     0.130130000000    -0.0392982  
C62      C      0.024480000000     0.280470000000     0.152950000000    -0.00947079 
C63      C      0.486420000000     0.235210000000     0.154200000000     0.0785324  
C64      C      0.467300000000     0.212200000000     0.174880000000    -0.187008   
C65      C      0.131880000000     0.485880000000     0.251810000000    -0.0138446  
C66      C      0.134430000000     0.533140000000     0.288170000000    -0.0411784  
C67      C      0.107300000000     0.002580000000     0.231500000000    -0.0190821  
C68      C      0.107440000000     0.048300000000     0.269360000000     0.0772909  
C69      C      0.088000000000     0.070310000000     0.290770000000    -0.187698   
C70      C      0.386250000000     0.482640000000     0.232620000000    -0.0133138  
C71      C      0.385770000000     0.004200000000     0.288390000000    -0.0484432  
C72      C      0.354220000000     0.497580000000     0.226370000000    -0.0103557  
C73      C      0.355810000000     0.022670000000     0.281420000000     0.0790193  
C74      C      0.337380000000     0.026970000000     0.312930000000    -0.189006   
C75      C      0.482720000000     0.371370000000     0.287890000000    -0.0133136  
C76      C      0.037310000000     0.371620000000     0.265520000000    -0.0400411  
C77      C      0.476320000000     0.402770000000     0.271300000000    -0.0102768  
C78      C      0.029920000000     0.401540000000     0.246410000000     0.0772697  
C79      C      0.060150000000     0.420650000000     0.241200000000    -0.19031    
C80      C      0.001510000000     0.125110000000     0.223930000000    -0.012088   
C81      C      0.467590000000     0.124010000000     0.272920000000    -0.0402048  
C82      C      0.024110000000     0.147890000000     0.240940000000    -0.0108983  
C83      C      0.490330000000     0.145910000000     0.290200000000     0.0784663  
C84      C      0.473900000000     0.164730000000     0.316840000000    -0.187551   
C85      C      0.488320000000     0.074790000000     0.750210000000     0.398654   
C86      C      0.003310000000     0.451210000000     0.760330000000     0.403678   
C87      C      0.434440000000     0.004450000000     0.756990000000     0.395237   
C88      C      0.057560000000     0.520900000000     0.753280000000     0.402893   
C89      C      0.007230000000     0.197070000000     0.766260000000     0.404757   
C90      C      0.007790000000     0.322060000000     0.770080000000     0.400672   
C91      C      0.006020000000     0.260240000000     0.704430000000     0.409188   
C92      C      0.007910000000     0.257290000000     0.831100000000     0.40184    
C93      C      0.306220000000     0.007000000000     0.755570000000     0.400244   
C94      C      0.182640000000     0.009070000000     0.766320000000     0.39447    
C95      C      0.238660000000     0.014530000000     0.697490000000     0.395194   
C96      C      0.251280000000     0.001280000000     0.823560000000     0.386459   
C97      C      0.249200000000     0.012180000000     0.567230000000     0.395579   
C98      C      0.277820000000     0.488890000000     0.945610000000     0.402897   
C99      C      0.268440000000     0.061590000000     0.496080000000     0.404291   
C100     C      0.259260000000     0.438510000000     0.016490000000     0.401732   
C101     C      0.990950000000     0.267050000000     0.579530000000     0.40059    
C102     C      0.509060000000     0.240800000000     0.957090000000     0.405328   
C103     C      0.060890000000     0.247580000000     0.528510000000     0.402955   
C104     C      0.438860000000     0.260780000000     0.009120000000     0.400339   
C105     C      0.253010000000     0.186650000000     0.511350000000     0.399664   
C106     C      0.246010000000     0.310840000000     0.524090000000     0.399695   
C107     C      0.188700000000     0.243010000000     0.526600000000     0.398672   
C108     C      0.311560000000     0.252260000000     0.508710000000     0.397537   
C109     C      0.362770000000     0.232810000000     0.526290000000    -0.0124591  
C110     C      0.358770000000     0.265390000000     0.976350000000    -0.0387456  
C111     C      0.390080000000     0.252520000000     0.537440000000    -0.00868823 
C112     C      0.388880000000     0.283630000000     0.986280000000     0.0752131  
C113     C      0.407490000000     0.292950000000     0.956210000000    -0.187322   
C114     C      0.139620000000     0.219350000000     0.507470000000    -0.0124844  
C115     C      0.141950000000     0.244940000000     0.561380000000    -0.0392485  
C116     C      0.108080000000     0.234660000000     0.001040000000    -0.0135052  
C117     C      0.110540000000     0.261580000000     0.054850000000     0.0755683  
C118     C      0.092580000000     0.266070000000     0.586470000000    -0.189542   
C119     C      0.223590000000     0.361190000000     0.005690000000    -0.016117   
C120     C      0.256930000000     0.359530000000     0.554690000000    -0.0397576  
C121     C      0.241920000000     0.389240000000     0.993210000000    -0.00715788 
C122     C      0.276100000000     0.388050000000     0.542740000000     0.0759304  
C123     C      0.287260000000     0.407290000000     0.571910000000    -0.186826   
C124     C      0.270090000000     0.135370000000     0.532290000000    -0.0131898  
C125     C      0.235750000000     0.138610000000     0.983210000000    -0.0405613  
C126     C      0.290520000000     0.111160000000     0.515220000000    -0.0100485  
C127     C      0.255180000000     0.112370000000     0.967620000000     0.0782854  
C128     C      0.235720000000     0.093490000000     0.943370000000    -0.187397   
C129     C      0.268900000000     0.024020000000     0.875020000000    -0.0178571  
C130     C      0.247440000000     0.468780000000     0.872720000000    -0.0426067  
C131     C      0.295830000000     0.012380000000     0.896210000000    -0.0124602  
C132     C      0.273850000000     0.457990000000     0.895150000000     0.0791076  
C133     C      0.263880000000     0.429550000000     0.915490000000    -0.191855   
C134     C      0.262250000000     0.041380000000     0.616380000000    -0.0127556  
C135     C      0.211410000000     0.513030000000     0.612030000000    -0.0396418  
C136     C      0.266910000000     0.029160000000     0.650350000000    -0.0117031  
C137     C      0.215950000000     0.498560000000     0.645580000000     0.0757369  
C138     C      0.183760000000     0.494610000000     0.661740000000    -0.188938   
C139     C      0.033550000000     0.268510000000     0.882820000000    -0.0138516  
C140     C      0.480540000000     0.242170000000     0.880470000000    -0.0407702  
C141     C      0.042720000000     0.246340000000     0.910030000000    -0.00742617 
C142     C      0.491620000000     0.217940000000     0.905150000000     0.075804   
C143     C      0.463480000000     0.203300000000     0.922690000000    -0.186895   
C144     C      0.003850000000     0.297130000000     0.628030000000    -0.0122999  
C145     C      0.465720000000     0.252330000000     0.630130000000    -0.0392984  
C146     C      0.024480000000     0.280470000000     0.652950000000    -0.00947373 
C147     C      0.486420000000     0.235210000000     0.654200000000     0.0785322  
C148     C      0.467300000000     0.212200000000     0.674880000000    -0.187015   
C149     C      0.131880000000     0.485880000000     0.751810000000    -0.0138474  
C150     C      0.134430000000     0.533140000000     0.788170000000    -0.0411926  
C151     C      0.107300000000     0.002580000000     0.731500000000    -0.0191257  
C152     C      0.107440000000     0.048300000000     0.769360000000     0.0773022  
C153     C      0.088000000000     0.070310000000     0.790770000000    -0.187719   
C154     C      0.386250000000     0.482640000000     0.732620000000    -0.0133201  
C155     C      0.385770000000     0.004200000000     0.788390000000    -0.0484892  
C156     C      0.354220000000     0.497580000000     0.726370000000    -0.0103566  
C157     C      0.355810000000     0.022670000000     0.781420000000     0.079039   
C158     C      0.337380000000     0.026970000000     0.812930000000    -0.189032   
C159     C      0.482720000000     0.371370000000     0.787890000000    -0.0133201  
C160     C      0.037310000000     0.371620000000     0.765530000000    -0.0399909  
C161     C      0.476320000000     0.402770000000     0.771300000000    -0.0102774  
C162     C      0.029920000000     0.401540000000     0.746410000000     0.0772586  
C163     C      0.060150000000     0.420650000000     0.741200000000    -0.190312   
C164     C      0.001510000000     0.125110000000     0.723930000000    -0.0120844  
C165     C      0.467590000000     0.124010000000     0.772920000000    -0.040213   
C166     C      0.024110000000     0.147890000000     0.740940000000    -0.0109013  
C167     C      0.490330000000     0.145910000000     0.790200000000     0.0784738  
C168     C      0.473900000000     0.164730000000     0.816840000000    -0.187569   
C169     C      0.488320000000     0.574790000000     0.250210000000     0.398817   
C170     C      0.003310000000     0.951210000000     0.260320000000     0.403253   
C171     C      0.434440000000     0.504450000000     0.256990000000     0.399461   
C172     C      0.057560000000     0.020900000000     0.253280000000     0.401919   
C173     C      0.007230000000     0.697070000000     0.266260000000     0.404667   
C174     C      0.007790000000     0.822060000000     0.270080000000     0.400664   
C175     C      0.006020000000     0.760240000000     0.204430000000     0.409198   
C176     C      0.007910000000     0.757290000000     0.331100000000     0.401835   
C177     C      0.306220000000     0.507000000000     0.255570000000     0.40494    
C178     C      0.182640000000     0.509070000000     0.266320000000     0.399269   
C179     C      0.238660000000     0.514530000000     0.197490000000     0.400131   
C180     C      0.251280000000     0.501280000000     0.323560000000     0.394682   
C181     C      0.249200000000     0.512180000000     0.067230000000     0.396215   
C182     C      0.277820000000     0.988890000000     0.445610000000     0.403083   
C183     C      0.268440000000     0.561590000000     0.996080000000     0.4059     
C184     C      0.259260000000     0.938510000000     0.516490000000     0.401494   
C185     C      0.990950000000     0.767050000000     0.079530000000     0.400493   
C186     C      0.509060000000     0.740790000000     0.457090000000     0.405508   
C187     C      0.060890000000     0.747580000000     0.028510000000     0.402567   
C188     C      0.438860000000     0.760780000000     0.509120000000     0.400593   
C189     C      0.253010000000     0.686650000000     0.011350000000     0.397877   
C190     C      0.246010000000     0.810840000000     0.024090000000     0.397656   
C191     C      0.188700000000     0.743010000000     0.026600000000     0.396809   
C192     C      0.311560000000     0.752260000000     0.008710000000     0.395962   
C193     C      0.362770000000     0.732810000000     0.026290000000    -0.0126666  
C194     C      0.358770000000     0.765390000000     0.476350000000    -0.0395914  
C195     C      0.390080000000     0.752520000000     0.037440000000    -0.00875343 
C196     C      0.388880000000     0.783630000000     0.486270000000     0.0742679  
C197     C      0.407490000000     0.792950000000     0.456210000000    -0.187139   
C198     C      0.139620000000     0.719350000000     0.007470000000    -0.0134363  
C199     C      0.141950000000     0.744940000000     0.061380000000    -0.0393276  
C200     C      0.108080000000     0.734660000000     0.501040000000    -0.0103801  
C201     C      0.110540000000     0.761570000000     0.554850000000     0.0756955  
C202     C      0.092580000000     0.766060000000     0.086480000000    -0.189717   
C203     C      0.223590000000     0.861200000000     0.505680000000    -0.01257    
C204     C      0.256930000000     0.859530000000     0.054690000000    -0.0401037  
C205     C      0.241920000000     0.889240000000     0.493210000000    -0.010341   
C206     C      0.276100000000     0.888050000000     0.042740000000     0.0761965  
C207     C      0.287260000000     0.907290000000     0.071910000000    -0.187069   
C208     C      0.270090000000     0.635370000000     0.032290000000    -0.0130754  
C209     C      0.235750000000     0.638610000000     0.483210000000    -0.0416873  
C210     C      0.290520000000     0.611160000000     0.015220000000    -0.0112374  
C211     C      0.255180000000     0.612370000000     0.467630000000     0.0784789  
C212     C      0.235720000000     0.593490000000     0.443370000000    -0.187502   
C213     C      0.268900000000     0.524020000000     0.375020000000    -0.0150136  
C214     C      0.247440000000     0.968780000000     0.372720000000    -0.042738   
C215     C      0.295830000000     0.512380000000     0.396210000000    -0.010021   
C216     C      0.273850000000     0.957990000000     0.395150000000     0.0794203  
C217     C      0.263880000000     0.929550000000     0.415490000000    -0.192003   
C218     C      0.262250000000     0.541380000000     0.116380000000    -0.0122451  
C219     C      0.211410000000     0.013030000000     0.112030000000    -0.0485652  
C220     C      0.266910000000     0.529160000000     0.150350000000    -0.0118567  
C221     C      0.215950000000     0.998560000000     0.145580000000     0.0822297  
C222     C      0.183760000000     0.994610000000     0.161740000000    -0.185468   
C223     C      0.033550000000     0.768510000000     0.382820000000    -0.0138711  
C224     C      0.480540000000     0.742170000000     0.380470000000    -0.0407289  
C225     C      0.042720000000     0.746340000000     0.410030000000    -0.00740797 
C226     C      0.491620000000     0.717940000000     0.405150000000     0.0757456  
C227     C      0.463480000000     0.703300000000     0.422690000000    -0.186819   
C228     C      0.003850000000     0.797130000000     0.128030000000    -0.0123571  
C229     C      0.465720000000     0.752330000000     0.130130000000    -0.0393166  
C230     C      0.024480000000     0.780470000000     0.152950000000    -0.00945813 
C231     C      0.486420000000     0.735210000000     0.154200000000     0.0785409  
C232     C      0.467300000000     0.712200000000     0.174880000000    -0.187033   
C233     C      0.131880000000     0.985870000000     0.251810000000    -0.00563653 
C234     C      0.134430000000     0.033140000000     0.288170000000    -0.0409797  
C235     C      0.107300000000     0.502580000000     0.231500000000    -0.00949909 
C236     C      0.107440000000     0.548300000000     0.269360000000     0.0778456  
C237     C      0.088000000000     0.570310000000     0.290770000000    -0.187958   
C238     C      0.386250000000     0.982640000000     0.232620000000    -0.0154219  
C239     C      0.385770000000     0.504200000000     0.288390000000    -0.0401098  
C240     C      0.354220000000     0.997580000000     0.226370000000    -0.0020864  
C241     C      0.355810000000     0.522670000000     0.281420000000     0.0774481  
C242     C      0.337380000000     0.526970000000     0.312930000000    -0.188392   
C243     C      0.482720000000     0.871370000000     0.287890000000    -0.0133067  
C244     C      0.037310000000     0.871630000000     0.265520000000    -0.0401558  
C245     C      0.476320000000     0.902770000000     0.271300000000    -0.010311   
C246     C      0.029920000000     0.901540000000     0.246410000000     0.0774602  
C247     C      0.060150000000     0.920650000000     0.241200000000    -0.190574   
C248     C      0.001510000000     0.625110000000     0.223930000000    -0.0121253  
C249     C      0.467590000000     0.624010000000     0.272920000000    -0.0402178  
C250     C      0.024110000000     0.647890000000     0.240940000000    -0.0108984  
C251     C      0.490330000000     0.645910000000     0.290200000000     0.0784668  
C252     C      0.473900000000     0.664730000000     0.316840000000    -0.187581   
C253     C      0.488320000000     0.574790000000     0.750210000000     0.398809   
C254     C      0.003310000000     0.951210000000     0.760330000000     0.403236   
C255     C      0.434440000000     0.504450000000     0.756990000000     0.399454   
C256     C      0.057560000000     0.020900000000     0.753280000000     0.401907   
C257     C      0.007230000000     0.697070000000     0.766260000000     0.40467    
C258     C      0.007790000000     0.822060000000     0.770080000000     0.400673   
C259     C      0.006020000000     0.760240000000     0.704430000000     0.409202   
C260     C      0.007910000000     0.757290000000     0.831100000000     0.401843   
C261     C      0.306220000000     0.507000000000     0.755570000000     0.404941   
C262     C      0.182640000000     0.509070000000     0.766320000000     0.399275   
C263     C      0.238660000000     0.514530000000     0.697490000000     0.400083   
C264     C      0.251280000000     0.501280000000     0.823560000000     0.394687   
C265     C      0.249200000000     0.512180000000     0.567230000000     0.396126   
C266     C      0.277820000000     0.988890000000     0.945610000000     0.403059   
C267     C      0.268440000000     0.561590000000     0.496080000000     0.404043   
C268     C      0.259260000000     0.938510000000     0.016490000000     0.401532   
C269     C      0.990950000000     0.767050000000     0.579530000000     0.400569   
C270     C      0.509060000000     0.740790000000     0.957090000000     0.405291   
C271     C      0.060890000000     0.747580000000     0.528510000000     0.402915   
C272     C      0.438860000000     0.760780000000     0.009120000000     0.400318   
C273     C      0.253010000000     0.686650000000     0.511350000000     0.399666   
C274     C      0.246010000000     0.810840000000     0.524090000000     0.399601   
C275     C      0.188700000000     0.743010000000     0.526600000000     0.398677   
C276     C      0.311560000000     0.752260000000     0.508710000000     0.397539   
C277     C      0.362770000000     0.732810000000     0.526290000000    -0.0125556  
C278     C      0.358770000000     0.765390000000     0.976350000000    -0.0387237  
C279     C      0.390080000000     0.752520000000     0.537440000000    -0.00866243 
C280     C      0.388880000000     0.783630000000     0.986280000000     0.0752332  
C281     C      0.407490000000     0.792950000000     0.956210000000    -0.187369   
C282     C      0.139620000000     0.719350000000     0.507470000000    -0.0125025  
C283     C      0.141950000000     0.744940000000     0.561380000000    -0.0392869  
C284     C      0.108080000000     0.734660000000     0.001040000000    -0.0135263  
C285     C      0.110540000000     0.761570000000     0.054850000000     0.0756136  
C286     C      0.092580000000     0.766060000000     0.586470000000    -0.189658   
C287     C      0.223590000000     0.861200000000     0.005690000000    -0.016205   
C288     C      0.256930000000     0.859530000000     0.554690000000    -0.039829   
C289     C      0.241920000000     0.889240000000     0.993210000000    -0.00713081 
C290     C      0.276100000000     0.888050000000     0.542740000000     0.0760831  
C291     C      0.287260000000     0.907290000000     0.571910000000    -0.187026   
C292     C      0.270090000000     0.635370000000     0.532290000000    -0.0131759  
C293     C      0.235750000000     0.638610000000     0.983210000000    -0.0406036  
C294     C      0.290520000000     0.611160000000     0.515220000000    -0.0101202  
C295     C      0.255180000000     0.612370000000     0.967620000000     0.0783772  
C296     C      0.235720000000     0.593490000000     0.943370000000    -0.187496   
C297     C      0.268900000000     0.524020000000     0.875020000000    -0.0150087  
C298     C      0.247440000000     0.968780000000     0.872720000000    -0.0427691  
C299     C      0.295830000000     0.512380000000     0.896210000000    -0.0100402  
C300     C      0.273850000000     0.957990000000     0.895150000000     0.0794847  
C301     C      0.263880000000     0.929550000000     0.915490000000    -0.192084   
C302     C      0.262250000000     0.541380000000     0.616380000000    -0.0122449  
C303     C      0.211410000000     0.013030000000     0.612030000000    -0.0486544  
C304     C      0.266910000000     0.529160000000     0.650350000000    -0.011859   
C305     C      0.215950000000     0.998560000000     0.645580000000     0.0822883  
C306     C      0.183760000000     0.994610000000     0.661740000000    -0.185481   
C307     C      0.033550000000     0.768510000000     0.882820000000    -0.0138788  
C308     C      0.480540000000     0.742170000000     0.880470000000    -0.0407603  
C309     C      0.042720000000     0.746340000000     0.910030000000    -0.00741446 
C310     C      0.491620000000     0.717940000000     0.905150000000     0.0758107  
C311     C      0.463480000000     0.703300000000     0.922690000000    -0.186938   
C312     C      0.003850000000     0.797130000000     0.628030000000    -0.0123483  
C313     C      0.465720000000     0.752330000000     0.630130000000    -0.0393168  
C314     C      0.024480000000     0.780470000000     0.652950000000    -0.00946103 
C315     C      0.486420000000     0.735210000000     0.654200000000     0.0785407  
C316     C      0.467300000000     0.712200000000     0.674880000000    -0.18704    
C317     C      0.131880000000     0.985870000000     0.751810000000    -0.00560712 
C318     C      0.134430000000     0.033140000000     0.788170000000    -0.040993   
C319     C      0.107300000000     0.502580000000     0.731500000000    -0.00950379 
C320     C      0.107440000000     0.548300000000     0.769360000000     0.0778589  
C321     C      0.088000000000     0.570310000000     0.790770000000    -0.18798    
C322     C      0.386250000000     0.982640000000     0.732620000000    -0.0154367  
C323     C      0.385770000000     0.504200000000     0.788390000000    -0.0401264  
C324     C      0.354220000000     0.997580000000     0.726370000000    -0.00205416 
C325     C      0.355810000000     0.522670000000     0.781420000000     0.0774623  
C326     C      0.337380000000     0.526970000000     0.812930000000    -0.188416   
C327     C      0.482720000000     0.871370000000     0.787890000000    -0.0133132  
C328     C      0.037310000000     0.871630000000     0.765530000000    -0.0401059  
C329     C      0.476320000000     0.902770000000     0.771300000000    -0.0103117  
C330     C      0.029920000000     0.901540000000     0.746410000000     0.0774496  
C331     C      0.060150000000     0.920650000000     0.741200000000    -0.190578   
C332     C      0.001510000000     0.625110000000     0.723930000000    -0.0121218  
C333     C      0.467590000000     0.624010000000     0.772920000000    -0.0402261  
C334     C      0.024110000000     0.647890000000     0.740940000000    -0.0109014  
C335     C      0.490330000000     0.645910000000     0.790200000000     0.0784744  
C336     C      0.473900000000     0.664730000000     0.816840000000    -0.187599   
C337     C      0.988320000000     0.074790000000     0.250210000000     0.39842    
C338     C      0.503310000000     0.451210000000     0.260320000000     0.403878   
C339     C      0.934440000000     0.004450000000     0.256990000000     0.395038   
C340     C      0.557560000000     0.520900000000     0.253280000000     0.403218   
C341     C      0.507230000000     0.197070000000     0.266260000000     0.402864   
C342     C      0.507790000000     0.322060000000     0.270080000000     0.398788   
C343     C      0.506010000000     0.260240000000     0.204430000000     0.407336   
C344     C      0.507910000000     0.257290000000     0.331100000000     0.399913   
C345     C      0.806220000000     0.007000000000     0.255570000000     0.40026    
C346     C      0.682640000000     0.009070000000     0.266320000000     0.394472   
C347     C      0.738660000000     0.014530000000     0.197490000000     0.395257   
C348     C      0.751280000000     0.001280000000     0.323560000000     0.386468   
C349     C      0.749200000000     0.012180000000     0.067230000000     0.395886   
C350     C      0.777820000000     0.488890000000     0.445610000000     0.402929   
C351     C      0.768440000000     0.061590000000     0.996080000000     0.406123   
C352     C      0.759260000000     0.438510000000     0.516490000000     0.401701   
C353     C      0.490950000000     0.267050000000     0.079530000000     0.400526   
C354     C      0.009060000000     0.240800000000     0.457090000000     0.405681   
C355     C      0.560880000000     0.247580000000     0.028510000000     0.402834   
C356     C      0.938860000000     0.260780000000     0.509120000000     0.400655   
C357     C      0.753010000000     0.186650000000     0.011350000000     0.397901   
C358     C      0.746010000000     0.310840000000     0.024090000000     0.397777   
C359     C      0.688700000000     0.243010000000     0.026600000000     0.396828   
C360     C      0.811560000000     0.252260000000     0.008710000000     0.395988   
C361     C      0.862770000000     0.232810000000     0.026290000000    -0.0125602  
C362     C      0.858770000000     0.265390000000     0.476350000000    -0.0395913  
C363     C      0.890080000000     0.252520000000     0.037440000000    -0.00878621 
C364     C      0.888880000000     0.283630000000     0.486270000000     0.0742242  
C365     C      0.907490000000     0.292950000000     0.456210000000    -0.187023   
C366     C      0.639620000000     0.219350000000     0.007470000000    -0.013401   
C367     C      0.641950000000     0.244940000000     0.061380000000    -0.039274   
C368     C      0.608080000000     0.234660000000     0.501040000000    -0.0103932  
C369     C      0.610540000000     0.261580000000     0.554850000000     0.0755908  
C370     C      0.592580000000     0.266070000000     0.086480000000    -0.189533   
C371     C      0.723590000000     0.361190000000     0.505680000000    -0.0125148  
C372     C      0.756930000000     0.359530000000     0.054690000000    -0.0400232  
C373     C      0.741920000000     0.389240000000     0.493210000000    -0.0103343  
C374     C      0.776100000000     0.388050000000     0.042740000000     0.0760385  
C375     C      0.787260000000     0.407290000000     0.071910000000    -0.186856   
C376     C      0.770090000000     0.135370000000     0.032290000000    -0.0130901  
C377     C      0.735750000000     0.138610000000     0.483210000000    -0.0416414  
C378     C      0.790520000000     0.111160000000     0.015220000000    -0.0111406  
C379     C      0.755180000000     0.112370000000     0.467630000000     0.0784336  
C380     C      0.735720000000     0.093490000000     0.443370000000    -0.187576   
C381     C      0.768900000000     0.024020000000     0.375020000000    -0.0178541  
C382     C      0.747440000000     0.468780000000     0.372720000000    -0.0425672  
C383     C      0.795830000000     0.012380000000     0.396210000000    -0.0124326  
C384     C      0.773850000000     0.457990000000     0.395150000000     0.0790394  
C385     C      0.763880000000     0.429550000000     0.415490000000    -0.191765   
C386     C      0.762250000000     0.041380000000     0.116380000000    -0.0127375  
C387     C      0.711410000000     0.513030000000     0.112030000000    -0.039541   
C388     C      0.766910000000     0.029160000000     0.150350000000    -0.0117033  
C389     C      0.715950000000     0.498560000000     0.145580000000     0.075686   
C390     C      0.683760000000     0.494610000000     0.161740000000    -0.188877   
C391     C      0.533550000000     0.268510000000     0.382820000000    -0.0140102  
C392     C      0.980540000000     0.242170000000     0.380470000000    -0.0410939  
C393     C      0.542720000000     0.246340000000     0.410030000000    -0.00742081 
C394     C      0.991620000000     0.217940000000     0.405150000000     0.0729852  
C395     C      0.963480000000     0.203300000000     0.422690000000    -0.185875   
C396     C      0.503850000000     0.297130000000     0.128030000000    -0.0154514  
C397     C      0.965720000000     0.252330000000     0.130130000000    -0.0385627  
C398     C      0.524480000000     0.280470000000     0.152950000000    -0.00878408 
C399     C      0.986420000000     0.235210000000     0.154200000000     0.0756618  
C400     C      0.967300000000     0.212200000000     0.174880000000    -0.186069   
C401     C      0.631880000000     0.485880000000     0.251810000000    -0.0138436  
C402     C      0.634420000000     0.533140000000     0.288170000000    -0.041181   
C403     C      0.607300000000     0.002580000000     0.231500000000    -0.0190914  
C404     C      0.607440000000     0.048300000000     0.269360000000     0.0772603  
C405     C      0.588000000000     0.070310000000     0.290770000000    -0.18761    
C406     C      0.886250000000     0.482640000000     0.232620000000    -0.0133147  
C407     C      0.885770000000     0.004200000000     0.288390000000    -0.0484313  
C408     C      0.854220000000     0.497580000000     0.226370000000    -0.0103523  
C409     C      0.855810000000     0.022670000000     0.281420000000     0.0790136  
C410     C      0.837380000000     0.026970000000     0.312930000000    -0.188992   
C411     C      0.982710000000     0.371370000000     0.287890000000    -0.0142757  
C412     C      0.537310000000     0.371620000000     0.265520000000    -0.0402091  
C413     C      0.976320000000     0.402770000000     0.271300000000    -0.0112291  
C414     C      0.529920000000     0.401540000000     0.246410000000     0.0772113  
C415     C      0.560150000000     0.420650000000     0.241200000000    -0.190269   
C416     C      0.501510000000     0.125110000000     0.223930000000    -0.0151937  
C417     C      0.967590000000     0.124010000000     0.272920000000    -0.0394871  
C418     C      0.524110000000     0.147890000000     0.240940000000    -0.0102668  
C419     C      0.990330000000     0.145910000000     0.290200000000     0.0755869  
C420     C      0.973900000000     0.164730000000     0.316840000000    -0.186596   
C421     C      0.988320000000     0.074790000000     0.750210000000     0.398411   
C422     C      0.503310000000     0.451210000000     0.760330000000     0.403863   
C423     C      0.934440000000     0.004450000000     0.756990000000     0.395014   
C424     C      0.557560000000     0.520900000000     0.753280000000     0.403211   
C425     C      0.507230000000     0.197070000000     0.766260000000     0.402862   
C426     C      0.507790000000     0.322060000000     0.770080000000     0.398792   
C427     C      0.506010000000     0.260240000000     0.704430000000     0.407334   
C428     C      0.507910000000     0.257290000000     0.831100000000     0.399916   
C429     C      0.806220000000     0.007000000000     0.755570000000     0.400243   
C430     C      0.682640000000     0.009070000000     0.766320000000     0.394459   
C431     C      0.738660000000     0.014530000000     0.697490000000     0.395189   
C432     C      0.751280000000     0.001280000000     0.823560000000     0.386448   
C433     C      0.749200000000     0.012180000000     0.567230000000     0.395798   
C434     C      0.777820000000     0.488890000000     0.945610000000     0.402908   
C435     C      0.768440000000     0.061590000000     0.496080000000     0.404303   
C436     C      0.759260000000     0.438510000000     0.016490000000     0.401743   
C437     C      0.490950000000     0.267050000000     0.579530000000     0.400601   
C438     C      0.009060000000     0.240800000000     0.957090000000     0.405466   
C439     C      0.560880000000     0.247580000000     0.528510000000     0.403178   
C440     C      0.938860000000     0.260780000000     0.009120000000     0.400385   
C441     C      0.753010000000     0.186650000000     0.511350000000     0.399664   
C442     C      0.746010000000     0.310840000000     0.524090000000     0.399696   
C443     C      0.688700000000     0.243010000000     0.526600000000     0.398671   
C444     C      0.811560000000     0.252260000000     0.508710000000     0.397538   
C445     C      0.862770000000     0.232810000000     0.526290000000    -0.0124508  
C446     C      0.858770000000     0.265390000000     0.976350000000    -0.0387362  
C447     C      0.890080000000     0.252520000000     0.537440000000    -0.0086968  
C448     C      0.888880000000     0.283630000000     0.986280000000     0.075174   
C449     C      0.907490000000     0.292950000000     0.956210000000    -0.187249   
C450     C      0.639620000000     0.219350000000     0.507470000000    -0.0124804  
C451     C      0.641950000000     0.244940000000     0.561380000000    -0.0392338  
C452     C      0.608080000000     0.234660000000     0.001040000000    -0.0134999  
C453     C      0.610540000000     0.261580000000     0.054850000000     0.0755099  
C454     C      0.592580000000     0.266070000000     0.586470000000    -0.189474   
C455     C      0.723590000000     0.361190000000     0.005690000000    -0.0160984  
C456     C      0.756930000000     0.359530000000     0.554690000000    -0.0397518  
C457     C      0.741920000000     0.389240000000     0.993210000000    -0.00716747 
C458     C      0.776100000000     0.388050000000     0.542740000000     0.0759257  
C459     C      0.787260000000     0.407290000000     0.571910000000    -0.186812   
C460     C      0.770090000000     0.135370000000     0.532290000000    -0.0131894  
C461     C      0.735750000000     0.138610000000     0.983210000000    -0.0405732  
C462     C      0.790520000000     0.111160000000     0.515220000000    -0.010041   
C463     C      0.755180000000     0.112370000000     0.967620000000     0.0783328  
C464     C      0.735720000000     0.093490000000     0.943370000000    -0.18757    
C465     C      0.768900000000     0.024020000000     0.875020000000    -0.0178573  
C466     C      0.747440000000     0.468780000000     0.872720000000    -0.0425975  
C467     C      0.795830000000     0.012380000000     0.896210000000    -0.0124572  
C468     C      0.773850000000     0.457990000000     0.895150000000     0.0791022  
C469     C      0.763880000000     0.429550000000     0.915490000000    -0.191845   
C470     C      0.762250000000     0.041380000000     0.616380000000    -0.0127401  
C471     C      0.711410000000     0.513030000000     0.612030000000    -0.0395774  
C472     C      0.766910000000     0.029160000000     0.650350000000    -0.0117046  
C473     C      0.715950000000     0.498560000000     0.645580000000     0.0757074  
C474     C      0.683760000000     0.494610000000     0.661740000000    -0.188905   
C475     C      0.533550000000     0.268510000000     0.882820000000    -0.0140182  
C476     C      0.980540000000     0.242170000000     0.880470000000    -0.041126   
C477     C      0.542720000000     0.246340000000     0.910030000000    -0.0074271  
C478     C      0.991620000000     0.217940000000     0.905150000000     0.0730437  
C479     C      0.963480000000     0.203300000000     0.922690000000    -0.185991   
C480     C      0.503850000000     0.297130000000     0.628030000000    -0.0154582  
C481     C      0.965720000000     0.252330000000     0.630130000000    -0.0385593  
C482     C      0.524480000000     0.280470000000     0.652950000000    -0.00878341 
C483     C      0.986420000000     0.235210000000     0.654200000000     0.0756474  
C484     C      0.967300000000     0.212200000000     0.674880000000    -0.186071   
C485     C      0.631880000000     0.485880000000     0.751810000000    -0.0138464  
C486     C      0.634420000000     0.533140000000     0.788170000000    -0.0411952  
C487     C      0.607300000000     0.002580000000     0.731500000000    -0.019135   
C488     C      0.607440000000     0.048300000000     0.769360000000     0.0772716  
C489     C      0.588000000000     0.070310000000     0.790770000000    -0.187631   
C490     C      0.886250000000     0.482640000000     0.732620000000    -0.013321   
C491     C      0.885770000000     0.004200000000     0.788390000000    -0.0484771  
C492     C      0.854220000000     0.497580000000     0.726370000000    -0.0103532  
C493     C      0.855810000000     0.022670000000     0.781420000000     0.0790332  
C494     C      0.837380000000     0.026970000000     0.812930000000    -0.189018   
C495     C      0.982710000000     0.371370000000     0.787890000000    -0.0142851  
C496     C      0.537310000000     0.371620000000     0.765530000000    -0.0401595  
C497     C      0.976320000000     0.402770000000     0.771300000000    -0.0112332  
C498     C      0.529920000000     0.401540000000     0.746410000000     0.0772     
C499     C      0.560150000000     0.420650000000     0.741200000000    -0.190272   
C500     C      0.501510000000     0.125110000000     0.723930000000    -0.015201   
C501     C      0.967590000000     0.124010000000     0.772920000000    -0.0394931  
C502     C      0.524110000000     0.147890000000     0.740940000000    -0.0102674  
C503     C      0.990330000000     0.145910000000     0.790200000000     0.0755854  
C504     C      0.973900000000     0.164730000000     0.816840000000    -0.186611   
C505     C      0.988320000000     0.574790000000     0.250210000000     0.398573   
C506     C      0.503310000000     0.951210000000     0.260320000000     0.403436   
C507     C      0.934440000000     0.504450000000     0.256990000000     0.399234   
C508     C      0.557560000000     0.020900000000     0.253280000000     0.402232   
C509     C      0.507230000000     0.697070000000     0.266260000000     0.402785   
C510     C      0.507790000000     0.822060000000     0.270080000000     0.398799   
C511     C      0.506010000000     0.760240000000     0.204430000000     0.407358   
C512     C      0.507910000000     0.757290000000     0.331100000000     0.399924   
C513     C      0.806220000000     0.507000000000     0.255570000000     0.404943   
C514     C      0.682640000000     0.509070000000     0.266320000000     0.399267   
C515     C      0.738660000000     0.514530000000     0.197490000000     0.400133   
C516     C      0.751280000000     0.501280000000     0.323560000000     0.394682   
C517     C      0.749200000000     0.512180000000     0.067230000000     0.396435   
C518     C      0.777820000000     0.988890000000     0.445610000000     0.403093   
C519     C      0.768440000000     0.561590000000     0.996080000000     0.405905   
C520     C      0.759260000000     0.938510000000     0.516490000000     0.401504   
C521     C      0.490950000000     0.767050000000     0.079530000000     0.400504   
C522     C      0.009060000000     0.740790000000     0.457090000000     0.405645   
C523     C      0.560880000000     0.747580000000     0.028510000000     0.402789   
C524     C      0.938860000000     0.760780000000     0.509120000000     0.400637   
C525     C      0.753010000000     0.686650000000     0.011350000000     0.397883   
C526     C      0.746010000000     0.810840000000     0.024090000000     0.397664   
C527     C      0.688700000000     0.743010000000     0.026600000000     0.396814   
C528     C      0.811560000000     0.752260000000     0.008710000000     0.395971   
C529     C      0.862770000000     0.732810000000     0.026290000000    -0.0126577  
C530     C      0.858770000000     0.765390000000     0.476350000000    -0.039578   
C531     C      0.890080000000     0.752520000000     0.037440000000    -0.00876145 
C532     C      0.888880000000     0.783630000000     0.486270000000     0.0742351  
C533     C      0.907490000000     0.792950000000     0.456210000000    -0.187067   
C534     C      0.639620000000     0.719350000000     0.007470000000    -0.0134295  
C535     C      0.641950000000     0.744940000000     0.061380000000    -0.0393129  
C536     C      0.608080000000     0.734660000000     0.501040000000    -0.0103802  
C537     C      0.610540000000     0.761570000000     0.554850000000     0.075637   
C538     C      0.592580000000     0.766060000000     0.086480000000    -0.18965    
C539     C      0.723590000000     0.861200000000     0.505680000000    -0.0125634  
C540     C      0.756930000000     0.859530000000     0.054690000000    -0.0400971  
C541     C      0.741920000000     0.889240000000     0.493210000000    -0.0103405  
C542     C      0.776100000000     0.888050000000     0.042740000000     0.0761916  
C543     C      0.787260000000     0.907290000000     0.071910000000    -0.187055   
C544     C      0.770090000000     0.635370000000     0.032290000000    -0.0130753  
C545     C      0.735750000000     0.638610000000     0.483210000000    -0.0416956  
C546     C      0.790520000000     0.611160000000     0.015220000000    -0.0112259  
C547     C      0.755180000000     0.612370000000     0.467630000000     0.0785262  
C548     C      0.735720000000     0.593490000000     0.443370000000    -0.187675   
C549     C      0.768900000000     0.524020000000     0.375020000000    -0.0150101  
C550     C      0.747440000000     0.968780000000     0.372720000000    -0.0427294  
C551     C      0.795830000000     0.512380000000     0.396210000000    -0.0100161  
C552     C      0.773850000000     0.957990000000     0.395150000000     0.0794157  
C553     C      0.763880000000     0.929550000000     0.415490000000    -0.191993   
C554     C      0.762250000000     0.541380000000     0.116380000000    -0.0122289  
C555     C      0.711410000000     0.013030000000     0.112030000000    -0.0485157  
C556     C      0.766910000000     0.529160000000     0.150350000000    -0.0118584  
C557     C      0.715950000000     0.998560000000     0.145580000000     0.0822111  
C558     C      0.683760000000     0.994610000000     0.161740000000    -0.185426   
C559     C      0.533550000000     0.768510000000     0.382820000000    -0.0140369  
C560     C      0.980540000000     0.742170000000     0.380470000000    -0.041082   
C561     C      0.542720000000     0.746340000000     0.410030000000    -0.00740882 
C562     C      0.991620000000     0.717940000000     0.405150000000     0.0729987  
C563     C      0.963480000000     0.703300000000     0.422690000000    -0.18592    
C564     C      0.503850000000     0.797130000000     0.128030000000    -0.0154842  
C565     C      0.965720000000     0.752330000000     0.130130000000    -0.0385836  
C566     C      0.524480000000     0.780470000000     0.152950000000    -0.00877462 
C567     C      0.986420000000     0.735210000000     0.154200000000     0.0756798  
C568     C      0.967300000000     0.712200000000     0.174880000000    -0.186097   
C569     C      0.631880000000     0.985870000000     0.251810000000    -0.00560964 
C570     C      0.634420000000     0.033140000000     0.288170000000    -0.0409817  
C571     C      0.607300000000     0.502580000000     0.231500000000    -0.00947764 
C572     C      0.607440000000     0.548300000000     0.269360000000     0.0778167  
C573     C      0.588000000000     0.570310000000     0.290770000000    -0.187871   
C574     C      0.886250000000     0.982640000000     0.232620000000    -0.0154241  
C575     C      0.885770000000     0.504200000000     0.288390000000    -0.040099   
C576     C      0.854220000000     0.997580000000     0.226370000000    -0.00208079 
C577     C      0.855810000000     0.522670000000     0.281420000000     0.0774427  
C578     C      0.837380000000     0.526970000000     0.312930000000    -0.188379   
C579     C      0.982710000000     0.871370000000     0.287890000000    -0.0142647  
C580     C      0.537310000000     0.871630000000     0.265520000000    -0.040323   
C581     C      0.976320000000     0.902770000000     0.271300000000    -0.0112554  
C582     C      0.529920000000     0.901540000000     0.246410000000     0.0774027  
C583     C      0.560150000000     0.920650000000     0.241200000000    -0.190534   
C584     C      0.501510000000     0.625110000000     0.223930000000    -0.0152249  
C585     C      0.967590000000     0.624010000000     0.272920000000    -0.0395015  
C586     C      0.524110000000     0.647890000000     0.240940000000    -0.0102678  
C587     C      0.990330000000     0.645910000000     0.290200000000     0.0755922  
C588     C      0.973900000000     0.664730000000     0.316840000000    -0.186627   
C589     C      0.988320000000     0.574790000000     0.750210000000     0.398564   
C590     C      0.503310000000     0.951210000000     0.760330000000     0.403419   
C591     C      0.934440000000     0.504450000000     0.756990000000     0.399226   
C592     C      0.557560000000     0.020900000000     0.753280000000     0.402222   
C593     C      0.507230000000     0.697070000000     0.766260000000     0.402782   
C594     C      0.507790000000     0.822060000000     0.770080000000     0.398803   
C595     C      0.506010000000     0.760240000000     0.704430000000     0.407356   
C596     C      0.507910000000     0.757290000000     0.831100000000     0.399927   
C597     C      0.806220000000     0.507000000000     0.755570000000     0.404944   
C598     C      0.682640000000     0.509070000000     0.766320000000     0.399273   
C599     C      0.738660000000     0.514530000000     0.697490000000     0.400085   
C600     C      0.751280000000     0.501280000000     0.823560000000     0.394687   
C601     C      0.749200000000     0.512180000000     0.567230000000     0.396347   
C602     C      0.777820000000     0.988890000000     0.945610000000     0.40307    
C603     C      0.768440000000     0.561590000000     0.496080000000     0.404055   
C604     C      0.759260000000     0.938510000000     0.016490000000     0.401542   
C605     C      0.490950000000     0.767050000000     0.579530000000     0.40058    
C606     C      0.009060000000     0.740790000000     0.957090000000     0.405428   
C607     C      0.560880000000     0.747580000000     0.528510000000     0.403138   
C608     C      0.938860000000     0.760780000000     0.009120000000     0.400364   
C609     C      0.753010000000     0.686650000000     0.511350000000     0.399666   
C610     C      0.746010000000     0.810840000000     0.524090000000     0.399603   
C611     C      0.688700000000     0.743010000000     0.526600000000     0.398677   
C612     C      0.811560000000     0.752260000000     0.508710000000     0.397541   
C613     C      0.862770000000     0.732810000000     0.526290000000    -0.0125474  
C614     C      0.858770000000     0.765390000000     0.976350000000    -0.0387142  
C615     C      0.890080000000     0.752520000000     0.537440000000    -0.00867099 
C616     C      0.888880000000     0.783630000000     0.986280000000     0.0751942  
C617     C      0.907490000000     0.792950000000     0.956210000000    -0.187295   
C618     C      0.639620000000     0.719350000000     0.507470000000    -0.0124984  
C619     C      0.641950000000     0.744940000000     0.561380000000    -0.0392723  
C620     C      0.608080000000     0.734660000000     0.001040000000    -0.0135211  
C621     C      0.610540000000     0.761570000000     0.054850000000     0.0755555  
C622     C      0.592580000000     0.766060000000     0.586470000000    -0.189591   
C623     C      0.723590000000     0.861200000000     0.005690000000    -0.0161865  
C624     C      0.756930000000     0.859530000000     0.554690000000    -0.0398234  
C625     C      0.741920000000     0.889240000000     0.993210000000    -0.0071404  
C626     C      0.776100000000     0.888050000000     0.542740000000     0.0760785  
C627     C      0.787260000000     0.907290000000     0.571910000000    -0.187012   
C628     C      0.770090000000     0.635370000000     0.532290000000    -0.0131756  
C629     C      0.735750000000     0.638610000000     0.983210000000    -0.0406156  
C630     C      0.790520000000     0.611160000000     0.515220000000    -0.0101127  
C631     C      0.755180000000     0.612370000000     0.967620000000     0.0784249  
C632     C      0.735720000000     0.593490000000     0.943370000000    -0.187669   
C633     C      0.768900000000     0.524020000000     0.875020000000    -0.0150052  
C634     C      0.747440000000     0.968780000000     0.872720000000    -0.0427604  
C635     C      0.795830000000     0.512380000000     0.896210000000    -0.0100352  
C636     C      0.773850000000     0.957990000000     0.895150000000     0.0794799  
C637     C      0.763880000000     0.929550000000     0.915490000000    -0.192074   
C638     C      0.762250000000     0.541380000000     0.616380000000    -0.0122288  
C639     C      0.711410000000     0.013030000000     0.612030000000    -0.0486048  
C640     C      0.766910000000     0.529160000000     0.650350000000    -0.0118607  
C641     C      0.715950000000     0.998560000000     0.645580000000     0.0822696  
C642     C      0.683760000000     0.994610000000     0.661740000000    -0.185439   
C643     C      0.533550000000     0.768510000000     0.882820000000    -0.014045   
C644     C      0.980540000000     0.742170000000     0.880470000000    -0.0411144  
C645     C      0.542720000000     0.746340000000     0.910030000000    -0.00741518 
C646     C      0.991620000000     0.717940000000     0.905150000000     0.0730578  
C647     C      0.963480000000     0.703300000000     0.922690000000    -0.186036   
C648     C      0.503850000000     0.797130000000     0.628030000000    -0.0154912  
C649     C      0.965720000000     0.752330000000     0.630130000000    -0.0385803  
C650     C      0.524480000000     0.780470000000     0.652950000000    -0.00877392 
C651     C      0.986420000000     0.735210000000     0.654200000000     0.0756654  
C652     C      0.967300000000     0.712200000000     0.674880000000    -0.186099   
C653     C      0.631880000000     0.985870000000     0.751810000000    -0.0055802  
C654     C      0.634420000000     0.033140000000     0.788170000000    -0.0409951  
C655     C      0.607300000000     0.502580000000     0.731500000000    -0.00948224 
C656     C      0.607440000000     0.548300000000     0.769360000000     0.07783    
C657     C      0.588000000000     0.570310000000     0.790770000000    -0.187893   
C658     C      0.886250000000     0.982640000000     0.732620000000    -0.0154389  
C659     C      0.885770000000     0.504200000000     0.788390000000    -0.0401156  
C660     C      0.854220000000     0.997580000000     0.726370000000    -0.00204858 
C661     C      0.855810000000     0.522670000000     0.781420000000     0.0774568  
C662     C      0.837380000000     0.526970000000     0.812930000000    -0.188403   
C663     C      0.982710000000     0.871370000000     0.787890000000    -0.014274   
C664     C      0.537310000000     0.871630000000     0.765530000000    -0.0402736  
C665     C      0.976320000000     0.902770000000     0.771300000000    -0.0112596  
C666     C      0.529920000000     0.901540000000     0.746410000000     0.077392   
C667     C      0.560150000000     0.920650000000     0.741200000000    -0.190538   
C668     C      0.501510000000     0.625110000000     0.723930000000    -0.0152324  
C669     C      0.967590000000     0.624010000000     0.772920000000    -0.0395076  
C670     C      0.524110000000     0.647890000000     0.740940000000    -0.0102685  
C671     C      0.990330000000     0.645910000000     0.790200000000     0.0755907  
C672     C      0.973900000000     0.664730000000     0.816840000000    -0.186642   
Cu1      Cu     0.495830000000     0.510220000000     0.225650000000     0.836888   
Cu2      Cu     0.996140000000     0.015600000000     0.284540000000     0.840212   
Cu3      Cu     0.478400000000     0.259270000000     0.268630000000     0.845476   
Cu4      Cu     0.036190000000     0.259750000000     0.266790000000     0.842223   
Cu5      Cu     0.243460000000     0.479110000000     0.257030000000     0.836958   
Cu6      Cu     0.245540000000     0.036840000000     0.263960000000     0.836315   
Cu7      Cu     0.291580000000     0.999560000000     0.513830000000     0.853618   
Cu8      Cu     0.235640000000     0.500690000000     0.999000000000     0.837397   
Cu9      Cu     0.995860000000     0.225900000000     0.523780000000     0.84862    
Cu10     Cu     0.504300000000     0.282400000000     0.012750000000     0.830577   
Cu11     Cu     0.254400000000     0.246220000000     0.046670000000     0.843574   
Cu12     Cu     0.245580000000     0.251260000000     0.488570000000     0.83442    
Cu13     Cu     0.495830000000     0.510220000000     0.725650000000     0.8369     
Cu14     Cu     0.996140000000     0.015600000000     0.784540000000     0.840293   
Cu15     Cu     0.478400000000     0.259270000000     0.768630000000     0.845471   
Cu16     Cu     0.036190000000     0.259750000000     0.766790000000     0.842227   
Cu17     Cu     0.243460000000     0.479110000000     0.757030000000     0.837081   
Cu18     Cu     0.245540000000     0.036840000000     0.763960000000     0.836277   
Cu19     Cu     0.291580000000     0.999560000000     0.013830000000     0.850865   
Cu20     Cu     0.235640000000     0.500690000000     0.499000000000     0.83345    
Cu21     Cu     0.995860000000     0.225900000000     0.023780000000     0.8474     
Cu22     Cu     0.504300000000     0.282400000000     0.512750000000     0.831985   
Cu23     Cu     0.254400000000     0.246220000000     0.546670000000     0.845146   
Cu24     Cu     0.245580000000     0.251260000000     0.988570000000     0.835349   
Cu25     Cu     0.495830000000     0.010220000000     0.225650000000     0.832917   
Cu26     Cu     0.996140000000     0.515600000000     0.284540000000     0.843928   
Cu27     Cu     0.478400000000     0.759270000000     0.268630000000     0.845592   
Cu28     Cu     0.036190000000     0.759750000000     0.266790000000     0.842192   
Cu29     Cu     0.243460000000     0.979110000000     0.257030000000     0.839359   
Cu30     Cu     0.245540000000     0.536840000000     0.263960000000     0.840734   
Cu31     Cu     0.291580000000     0.499550000000     0.513830000000     0.842301   
Cu32     Cu     0.235640000000     0.000690000000     0.999000000000     0.826242   
Cu33     Cu     0.995860000000     0.725900000000     0.523780000000     0.848743   
Cu34     Cu     0.504300000000     0.782400000000     0.012750000000     0.830737   
Cu35     Cu     0.254400000000     0.746220000000     0.046670000000     0.843663   
Cu36     Cu     0.245580000000     0.751260000000     0.488570000000     0.834385   
Cu37     Cu     0.495830000000     0.010220000000     0.725650000000     0.83291    
Cu38     Cu     0.996140000000     0.515600000000     0.784540000000     0.844021   
Cu39     Cu     0.478400000000     0.759270000000     0.768630000000     0.845587   
Cu40     Cu     0.036190000000     0.759750000000     0.766790000000     0.842196   
Cu41     Cu     0.243460000000     0.979110000000     0.757030000000     0.83949    
Cu42     Cu     0.245540000000     0.536840000000     0.763960000000     0.840713   
Cu43     Cu     0.291580000000     0.499550000000     0.013830000000     0.839625   
Cu44     Cu     0.235640000000     0.000690000000     0.499000000000     0.822299   
Cu45     Cu     0.995860000000     0.725900000000     0.023780000000     0.847508   
Cu46     Cu     0.504300000000     0.782400000000     0.512750000000     0.832162   
Cu47     Cu     0.254400000000     0.746220000000     0.546670000000     0.845252   
Cu48     Cu     0.245580000000     0.751260000000     0.988570000000     0.835321   
Cu49     Cu     0.995830000000     0.510220000000     0.225650000000     0.834529   
Cu50     Cu     0.496140000000     0.015600000000     0.284540000000     0.84267    
Cu51     Cu     0.978400000000     0.259270000000     0.268630000000     0.844655   
Cu52     Cu     0.536190000000     0.259750000000     0.266790000000     0.840563   
Cu53     Cu     0.743460000000     0.479110000000     0.257030000000     0.836965   
Cu54     Cu     0.745540000000     0.036840000000     0.263960000000     0.836322   
Cu55     Cu     0.791580000000     0.999560000000     0.513830000000     0.853593   
Cu56     Cu     0.735640000000     0.500690000000     0.999000000000     0.837398   
Cu57     Cu     0.495860000000     0.225900000000     0.523780000000     0.852513   
Cu58     Cu     0.004310000000     0.282400000000     0.012750000000     0.834659   
Cu59     Cu     0.754400000000     0.246220000000     0.046670000000     0.843591   
Cu60     Cu     0.745580000000     0.251260000000     0.488570000000     0.83443    
Cu61     Cu     0.995830000000     0.510220000000     0.725650000000     0.83453    
Cu62     Cu     0.496140000000     0.015600000000     0.784540000000     0.842759   
Cu63     Cu     0.978400000000     0.259270000000     0.768630000000     0.844647   
Cu64     Cu     0.536190000000     0.259750000000     0.766790000000     0.840562   
Cu65     Cu     0.743460000000     0.479110000000     0.757030000000     0.837088   
Cu66     Cu     0.745540000000     0.036840000000     0.763960000000     0.836285   
Cu67     Cu     0.791580000000     0.999560000000     0.013830000000     0.850851   
Cu68     Cu     0.735640000000     0.500690000000     0.499000000000     0.833462   
Cu69     Cu     0.495860000000     0.225900000000     0.023780000000     0.851261   
Cu70     Cu     0.004310000000     0.282400000000     0.512750000000     0.836097   
Cu71     Cu     0.754400000000     0.246220000000     0.546670000000     0.845158   
Cu72     Cu     0.745580000000     0.251260000000     0.988570000000     0.835356   
Cu73     Cu     0.995830000000     0.010220000000     0.225650000000     0.830577   
Cu74     Cu     0.496140000000     0.515600000000     0.284540000000     0.846404   
Cu75     Cu     0.978400000000     0.759270000000     0.268630000000     0.844774   
Cu76     Cu     0.536190000000     0.759750000000     0.266790000000     0.840539   
Cu77     Cu     0.743460000000     0.979110000000     0.257030000000     0.83937    
Cu78     Cu     0.745540000000     0.536840000000     0.263960000000     0.840748   
Cu79     Cu     0.791580000000     0.499550000000     0.513830000000     0.842264   
Cu80     Cu     0.735640000000     0.000690000000     0.999000000000     0.826229   
Cu81     Cu     0.495860000000     0.725900000000     0.523780000000     0.852625   
Cu82     Cu     0.004310000000     0.782400000000     0.012750000000     0.8348     
Cu83     Cu     0.754400000000     0.746220000000     0.046670000000     0.84368    
Cu84     Cu     0.745580000000     0.751260000000     0.488570000000     0.834395   
Cu85     Cu     0.995830000000     0.010220000000     0.725650000000     0.83056    
Cu86     Cu     0.496140000000     0.515600000000     0.784540000000     0.846505   
Cu87     Cu     0.978400000000     0.759270000000     0.768630000000     0.844766   
Cu88     Cu     0.536190000000     0.759750000000     0.766790000000     0.840538   
Cu89     Cu     0.743460000000     0.979110000000     0.757030000000     0.839502   
Cu90     Cu     0.745540000000     0.536840000000     0.763960000000     0.840727   
Cu91     Cu     0.791580000000     0.499550000000     0.013830000000     0.839599   
Cu92     Cu     0.735640000000     0.000690000000     0.499000000000     0.822297   
Cu93     Cu     0.495860000000     0.725900000000     0.023780000000     0.851357   
Cu94     Cu     0.004310000000     0.782400000000     0.512750000000     0.836254   
Cu95     Cu     0.754400000000     0.746220000000     0.546670000000     0.845264   
Cu96     Cu     0.745580000000     0.751260000000     0.988570000000     0.835328   
H1       H      0.418630000000     0.272020000000     0.445150000000     0.0669585  
H2       H      0.365350000000     0.246060000000     0.459750000000     0.0434443  
H3       H      0.372110000000     0.212060000000     0.013220000000     0.0394495  
H4       H      0.405020000000     0.238320000000     0.053760000000     0.0384996  
H5       H      0.342740000000     0.281550000000     0.463350000000     0.0456884  
H6       H      0.391750000000     0.303950000000     0.438290000000     0.0613296  
H7       H      0.381150000000     0.305600000000     0.498350000000     0.0203023  
H8       H      0.349810000000     0.223870000000     0.047450000000     0.0415282  
H9       H      0.380780000000     0.272610000000     0.051550000000     0.0387674  
H10      H      0.425610000000     0.310660000000     0.462120000000     0.0789688  
H11      H      0.084760000000     0.243000000000     0.096060000000     0.0710889  
H12      H      0.137490000000     0.222570000000     0.074410000000     0.0466982  
H13      H      0.135320000000     0.195490000000     0.017400000000     0.038312   
H14      H      0.093400000000     0.218290000000     0.486640000000     0.0351773  
H15      H      0.156750000000     0.260220000000     0.076800000000     0.0468118  
H16      H      0.107700000000     0.277680000000     0.104550000000     0.0625019  
H17      H      0.115790000000     0.285270000000     0.544910000000     0.0232445  
H18      H      0.152320000000     0.216310000000     0.484480000000     0.0408253  
H19      H      0.111970000000     0.256120000000     0.486360000000     0.0395945  
H20      H      0.071850000000     0.281360000000     0.582890000000     0.074462   
H21      H      0.267780000000     0.421430000000     0.082000000000     0.072807   
H22      H      0.237710000000     0.368080000000     0.070360000000     0.0448128  
H23      H      0.203020000000     0.370230000000     0.019090000000     0.0391419  
H24      H      0.225930000000     0.404350000000     0.478950000000     0.0367255  
H25      H      0.272310000000     0.343990000000     0.069210000000     0.047721   
H26      H      0.296230000000     0.391460000000     0.090950000000     0.0620405  
H27      H      0.297090000000     0.378700000000     0.530240000000     0.0210394  
H28      H      0.214660000000     0.347200000000     0.485190000000     0.0412891  
H29      H      0.260200000000     0.380350000000     0.476610000000     0.0353449  
H30      H      0.307010000000     0.422900000000     0.065410000000     0.0794395  
H31      H      0.214220000000     0.083800000000     0.954510000000     0.0774985  
H32      H      0.214790000000     0.127860000000     0.994510000000     0.045938   
H33      H      0.252530000000     0.122780000000     0.047130000000     0.0409851  
H34      H      0.301750000000     0.095880000000     0.033500000000     0.0393649  
H35      H      0.227320000000     0.155200000000     0.464540000000     0.047402   
H36      H      0.228420000000     0.109080000000     0.423410000000     0.0609998  
H37      H      0.273790000000     0.124420000000     0.453630000000     0.0180651  
H38      H      0.285090000000     0.149720000000     0.048400000000     0.0396332  
H39      H      0.309220000000     0.123750000000     0.501890000000     0.0378791  
H40      H      0.249930000000     0.074170000000     0.433020000000     0.0717614  
H41      H      0.242570000000     0.434870000000     0.429620000000     0.0752865  
H42      H      0.226320000000     0.473860000000     0.387340000000     0.0493266  
H43      H      0.250010000000     0.533220000000     0.390660000000     0.0398341  
H44      H      0.303610000000     0.031770000000     0.412250000000     0.0315394  
H45      H      0.241320000000     0.449400000000     0.356010000000     0.0485469  
H46      H      0.258760000000     0.409170000000     0.399740000000     0.06255    
H47      H      0.293360000000     0.950020000000     0.379510000000     0.0187295  
H48      H      0.277590000000     0.043740000000     0.360020000000     0.0375587  
H49      H      0.315750000000     0.005630000000     0.380610000000     0.0329001  
H50      H      0.283060000000     0.422740000000     0.432000000000     0.071252   
H51      H      0.173860000000     0.517900000000     0.168220000000     0.0700025  
H52      H      0.197750000000     0.535200000000     0.114190000000     0.0458614  
H53      H      0.250850000000     0.064830000000     0.117950000000     0.0372353  
H54      H      0.277930000000     0.047960000000     0.165060000000     0.0379102  
H55      H      0.197940000000     0.496380000000     0.096810000000     0.0457145  
H56      H      0.167210000000     0.482490000000     0.145400000000     0.0615023  
H57      H      0.226360000000     0.474770000000     0.142450000000     0.0224746  
H58      H      0.285410000000     0.044870000000     0.104850000000     0.0396812  
H59      H      0.283760000000     0.009260000000     0.149400000000     0.0369725  
H60      H      0.185510000000     0.479980000000     0.183620000000     0.0766323  
H61      H      0.450610000000     0.221240000000     0.436810000000     0.0705929  
H62      H      0.468120000000     0.261580000000     0.393000000000     0.0453264  
H63      H      0.525350000000     0.290930000000     0.393590000000     0.0417237  
H64      H      0.058440000000     0.258760000000     0.427070000000     0.035523   
H65      H      0.463790000000     0.230710000000     0.363780000000     0.043944   
H66      H      0.447030000000     0.192870000000     0.405090000000     0.0586532  
H67      H      0.003580000000     0.198750000000     0.391790000000     0.0183779  
H68      H      0.054520000000     0.273990000000     0.368140000000     0.0414138  
H69      H      0.056110000000     0.226470000000     0.399500000000     0.035395   
H70      H      0.471360000000     0.183950000000     0.438560000000     0.077899   
H71      H      0.447510000000     0.224260000000     0.186900000000     0.0773826  
H72      H      0.448330000000     0.266690000000     0.143460000000     0.0458526  
H73      H      0.987770000000     0.313400000000     0.140780000000     0.0388657  
H74      H      0.036210000000     0.298420000000     0.168150000000     0.0360868  
H75      H      0.452660000000     0.235200000000     0.115070000000     0.0449246  
H76      H      0.457380000000     0.193390000000     0.159510000000     0.06187    
H77      H      0.502970000000     0.220580000000     0.140020000000     0.0223887  
H78      H      0.018890000000     0.311140000000     0.111660000000     0.0374059  
H79      H      0.042780000000     0.266830000000     0.140170000000     0.0354529  
H80      H      0.482500000000     0.200690000000     0.192950000000     0.0733566  
H81      H      0.078500000000     0.557580000000     0.311810000000     0.0779339  
H82      H      0.124470000000     0.520890000000     0.309350000000     0.0450368  
H83      H      0.119810000000     0.470860000000     0.269730000000     0.0380119  
H84      H      0.092360000000     0.484660000000     0.219620000000     0.0336109  
H85      H      0.150520000000     0.051660000000     0.297190000000     0.0471986  
H86      H      0.102990000000     0.089720000000     0.299750000000     0.062158   
H87      H      0.118580000000     0.063460000000     0.250900000000     0.0191795  
H88      H      0.146160000000     0.470470000000     0.236040000000     0.0363215  
H89      H      0.119370000000     0.016480000000     0.212650000000     0.037307   
H90      H      0.068600000000     0.081070000000     0.276930000000     0.074148   
H91      H      0.326620000000     0.004390000000     0.320510000000     0.0713115  
H92      H      0.379500000000     0.981000000000     0.298920000000     0.0507492  
H93      H      0.382390000000     0.457830000000     0.239990000000     0.037846   
H94      H      0.339850000000     0.481360000000     0.211520000000     0.0358227  
H95      H      0.399810000000     0.017360000000     0.306330000000     0.0495118  
H96      H      0.353050000000     0.035290000000     0.332350000000     0.0604128  
H97      H      0.362630000000     0.046330000000     0.272430000000     0.021425   
H98      H      0.399830000000     0.482200000000     0.209980000000     0.0418237  
H99      H      0.357900000000     0.519330000000     0.212100000000     0.0368392  
H100     H      0.318950000000     0.045090000000     0.310330000000     0.0789995  
H101     H      0.068500000000     0.430860000000     0.264110000000     0.0704138  
H102     H      0.048440000000     0.378270000000     0.288600000000     0.0474442  
H103     H      0.989590000000     0.376360000000     0.313020000000     0.0387212  
H104     H      0.460910000000     0.417390000000     0.286790000000     0.0359031  
H105     H      0.054320000000     0.357200000000     0.251730000000     0.0477127  
H106     H      0.078850000000     0.405440000000     0.231180000000     0.0613467  
H107     H      0.520860000000     0.394270000000     0.222580000000     0.0218078  
H108     H      0.460730000000     0.357460000000     0.288690000000     0.0418102  
H109     H      0.463260000000     0.397960000000     0.248830000000     0.0384307  
H110     H      0.056140000000     0.439850000000     0.223740000000     0.0763033  
H111     H      0.453350000000     0.177760000000     0.307510000000     0.0761981  
H112     H      0.449200000000     0.138570000000     0.261310000000     0.0454458  
H113     H      0.484460000000     0.139220000000     0.209910000000     0.0364345  
H114     H      0.034550000000     0.164140000000     0.223000000000     0.0349206  
H115     H      0.455850000000     0.108080000000     0.290290000000     0.0460816  
H116     H      0.465450000000     0.148390000000     0.335670000000     0.0600533  
H117     H      0.007790000000     0.130530000000     0.302250000000     0.0222401  
H118     H      0.014930000000     0.109990000000     0.207130000000     0.0390404  
H119     H      0.043250000000     0.133910000000     0.251930000000     0.036121   
H120     H      0.490500000000     0.181380000000     0.328260000000     0.0721693  
H121     H      0.418630000000     0.272020000000     0.945150000000     0.0672204  
H122     H      0.365350000000     0.246060000000     0.959750000000     0.0435755  
H123     H      0.372110000000     0.212060000000     0.513220000000     0.0397661  
H124     H      0.405020000000     0.238320000000     0.553760000000     0.03851    
H125     H      0.342740000000     0.281550000000     0.963350000000     0.0457125  
H126     H      0.391750000000     0.303950000000     0.938290000000     0.0614614  
H127     H      0.381150000000     0.305600000000     0.998350000000     0.0206642  
H128     H      0.349810000000     0.223870000000     0.547450000000     0.0415417  
H129     H      0.380780000000     0.272610000000     0.551550000000     0.0389169  
H130     H      0.425610000000     0.310660000000     0.962120000000     0.079413   
H131     H      0.084760000000     0.243000000000     0.596060000000     0.0710676  
H132     H      0.137490000000     0.222570000000     0.574410000000     0.0467097  
H133     H      0.135320000000     0.195490000000     0.517400000000     0.0384831  
H134     H      0.093400000000     0.218290000000     0.986640000000     0.0368159  
H135     H      0.156750000000     0.260220000000     0.576800000000     0.0468245  
H136     H      0.107700000000     0.277680000000     0.604550000000     0.0624804  
H137     H      0.115790000000     0.285270000000     0.044910000000     0.0230552  
H138     H      0.152320000000     0.216310000000     0.984480000000     0.0418255  
H139     H      0.111970000000     0.256120000000     0.986360000000     0.041216   
H140     H      0.071850000000     0.281360000000     0.082890000000     0.0744418  
H141     H      0.267780000000     0.421430000000     0.582000000000     0.0728103  
H142     H      0.237710000000     0.368080000000     0.570360000000     0.0447803  
H143     H      0.203020000000     0.370230000000     0.519090000000     0.0387497  
H144     H      0.225930000000     0.404350000000     0.978950000000     0.03646    
H145     H      0.272310000000     0.343990000000     0.569210000000     0.0476979  
H146     H      0.296230000000     0.391460000000     0.590950000000     0.0620701  
H147     H      0.297090000000     0.378700000000     0.030240000000     0.0206954  
H148     H      0.214660000000     0.347200000000     0.985190000000     0.0428921  
H149     H      0.260200000000     0.380350000000     0.976610000000     0.0350422  
H150     H      0.307010000000     0.422900000000     0.565410000000     0.0795046  
H151     H      0.214220000000     0.083800000000     0.454510000000     0.0773929  
H152     H      0.214790000000     0.127860000000     0.494510000000     0.0457078  
H153     H      0.252530000000     0.122780000000     0.547130000000     0.0412655  
H154     H      0.301750000000     0.095880000000     0.533510000000     0.0392955  
H155     H      0.227320000000     0.155200000000     0.964540000000     0.0473527  
H156     H      0.228420000000     0.109080000000     0.923410000000     0.0610404  
H157     H      0.273790000000     0.124420000000     0.953630000000     0.0183506  
H158     H      0.285090000000     0.149720000000     0.548400000000     0.039683   
H159     H      0.309220000000     0.123750000000     0.001890000000     0.0376768  
H160     H      0.249930000000     0.074170000000     0.933020000000     0.0717835  
H161     H      0.242570000000     0.434870000000     0.929620000000     0.0754404  
H162     H      0.226320000000     0.473860000000     0.887340000000     0.0493774  
H163     H      0.250010000000     0.533220000000     0.890660000000     0.0398529  
H164     H      0.303610000000     0.031770000000     0.912250000000     0.0316691  
H165     H      0.241320000000     0.449400000000     0.856010000000     0.0485719  
H166     H      0.258760000000     0.409170000000     0.899740000000     0.0626262  
H167     H      0.293360000000     0.950020000000     0.879510000000     0.0187597  
H168     H      0.277590000000     0.043740000000     0.860020000000     0.0375795  
H169     H      0.315750000000     0.005630000000     0.880610000000     0.0329667  
H170     H      0.283060000000     0.422740000000     0.932000000000     0.0714675  
H171     H      0.173860000000     0.517900000000     0.668220000000     0.0700372  
H172     H      0.197750000000     0.535200000000     0.614190000000     0.0459633  
H173     H      0.250850000000     0.064830000000     0.617950000000     0.037289   
H174     H      0.277930000000     0.047960000000     0.665060000000     0.0379166  
H175     H      0.197940000000     0.496380000000     0.596810000000     0.0458312  
H176     H      0.167210000000     0.482490000000     0.645400000000     0.0615724  
H177     H      0.226360000000     0.474770000000     0.642450000000     0.0224773  
H178     H      0.285410000000     0.044870000000     0.604850000000     0.0397214  
H179     H      0.283760000000     0.009260000000     0.649400000000     0.0369721  
H180     H      0.185510000000     0.479980000000     0.683620000000     0.0766444  
H181     H      0.450610000000     0.221240000000     0.936810000000     0.0708378  
H182     H      0.468120000000     0.261580000000     0.893000000000     0.0453896  
H183     H      0.525350000000     0.290930000000     0.893590000000     0.0418222  
H184     H      0.058440000000     0.258760000000     0.927070000000     0.035665   
H185     H      0.463790000000     0.230710000000     0.863780000000     0.0439663  
H186     H      0.447030000000     0.192870000000     0.905090000000     0.0587852  
H187     H      0.003580000000     0.198750000000     0.891790000000     0.0184147  
H188     H      0.054520000000     0.273990000000     0.868140000000     0.0414553  
H189     H      0.056110000000     0.226470000000     0.899500000000     0.0354571  
H190     H      0.471360000000     0.183950000000     0.938560000000     0.0781676  
H191     H      0.447510000000     0.224260000000     0.686900000000     0.0773858  
H192     H      0.448330000000     0.266690000000     0.643460000000     0.0458655  
H193     H      0.987770000000     0.313400000000     0.640780000000     0.0388919  
H194     H      0.036210000000     0.298420000000     0.668150000000     0.0360987  
H195     H      0.452660000000     0.235200000000     0.615070000000     0.044945   
H196     H      0.457380000000     0.193390000000     0.659510000000     0.0618961  
H197     H      0.502970000000     0.220580000000     0.640020000000     0.0224071  
H198     H      0.018890000000     0.311140000000     0.611660000000     0.0374575  
H199     H      0.042780000000     0.266830000000     0.640170000000     0.0354576  
H200     H      0.482500000000     0.200690000000     0.692950000000     0.0733624  
H201     H      0.078500000000     0.557580000000     0.811810000000     0.0779853  
H202     H      0.124470000000     0.520890000000     0.809350000000     0.0450773  
H203     H      0.119810000000     0.470860000000     0.769730000000     0.0380278  
H204     H      0.092360000000     0.484660000000     0.719620000000     0.0336313  
H205     H      0.150520000000     0.051660000000     0.797190000000     0.0472177  
H206     H      0.102990000000     0.089720000000     0.799750000000     0.0621884  
H207     H      0.118580000000     0.063460000000     0.750900000000     0.0191839  
H208     H      0.146160000000     0.470470000000     0.736040000000     0.0363291  
H209     H      0.119370000000     0.016480000000     0.712650000000     0.037333   
H210     H      0.068600000000     0.081070000000     0.776930000000     0.0741632  
H211     H      0.326620000000     0.004390000000     0.820510000000     0.0713278  
H212     H      0.379500000000     0.981000000000     0.798920000000     0.0507951  
H213     H      0.382390000000     0.457830000000     0.739990000000     0.0378561  
H214     H      0.339850000000     0.481360000000     0.711520000000     0.0358303  
H215     H      0.399810000000     0.017360000000     0.806330000000     0.0495602  
H216     H      0.353050000000     0.035290000000     0.832350000000     0.0604716  
H217     H      0.362630000000     0.046330000000     0.772430000000     0.0214274  
H218     H      0.399830000000     0.482200000000     0.709980000000     0.0418473  
H219     H      0.357900000000     0.519330000000     0.712100000000     0.0368506  
H220     H      0.318950000000     0.045090000000     0.810330000000     0.0790169  
H221     H      0.068500000000     0.430860000000     0.764110000000     0.0704303  
H222     H      0.048440000000     0.378270000000     0.788610000000     0.0474581  
H223     H      0.989590000000     0.376360000000     0.813020000000     0.0387716  
H224     H      0.460910000000     0.417390000000     0.786790000000     0.0359296  
H225     H      0.054320000000     0.357200000000     0.751730000000     0.047702   
H226     H      0.078850000000     0.405440000000     0.731180000000     0.0613628  
H227     H      0.520860000000     0.394270000000     0.722580000000     0.0218266  
H228     H      0.460730000000     0.357460000000     0.788690000000     0.0418297  
H229     H      0.463260000000     0.397960000000     0.748830000000     0.0384411  
H230     H      0.056140000000     0.439850000000     0.723740000000     0.0763233  
H231     H      0.453350000000     0.177760000000     0.807510000000     0.0762133  
H232     H      0.449200000000     0.138570000000     0.761310000000     0.0454526  
H233     H      0.484460000000     0.139220000000     0.709910000000     0.0364501  
H234     H      0.034550000000     0.164140000000     0.723000000000     0.0349305  
H235     H      0.455850000000     0.108080000000     0.790290000000     0.0461073  
H236     H      0.465450000000     0.148390000000     0.835670000000     0.0601115  
H237     H      0.007790000000     0.130530000000     0.802250000000     0.022267   
H238     H      0.014930000000     0.109990000000     0.707130000000     0.0390675  
H239     H      0.043250000000     0.133910000000     0.751930000000     0.0361287  
H240     H      0.490500000000     0.181380000000     0.828260000000     0.0721895  
H241     H      0.418630000000     0.772020000000     0.445150000000     0.0669852  
H242     H      0.365350000000     0.746060000000     0.459750000000     0.0434479  
H243     H      0.372110000000     0.712070000000     0.013220000000     0.0395286  
H244     H      0.405020000000     0.738320000000     0.053760000000     0.0385265  
H245     H      0.342740000000     0.781550000000     0.463350000000     0.0457093  
H246     H      0.391750000000     0.803950000000     0.438290000000     0.0614252  
H247     H      0.381150000000     0.805600000000     0.498350000000     0.0203848  
H248     H      0.349810000000     0.723870000000     0.047450000000     0.0415759  
H249     H      0.380780000000     0.772610000000     0.051550000000     0.0388007  
H250     H      0.425610000000     0.810660000000     0.462120000000     0.0791108  
H251     H      0.084760000000     0.743010000000     0.096060000000     0.0712118  
H252     H      0.137490000000     0.722570000000     0.074410000000     0.0467354  
H253     H      0.135320000000     0.695490000000     0.017400000000     0.0383856  
H254     H      0.093400000000     0.718290000000     0.486640000000     0.0352252  
H255     H      0.156750000000     0.760220000000     0.076800000000     0.0468396  
H256     H      0.107700000000     0.777680000000     0.104550000000     0.0625472  
H257     H      0.115790000000     0.785270000000     0.544910000000     0.023315   
H258     H      0.152320000000     0.716310000000     0.484480000000     0.0408554  
H259     H      0.111970000000     0.756120000000     0.486360000000     0.039626   
H260     H      0.071850000000     0.781360000000     0.582890000000     0.0745063  
H261     H      0.267780000000     0.921430000000     0.082000000000     0.0733547  
H262     H      0.237710000000     0.868080000000     0.070360000000     0.0449444  
H263     H      0.203020000000     0.870220000000     0.019090000000     0.0393687  
H264     H      0.225930000000     0.904350000000     0.478950000000     0.0369431  
H265     H      0.272310000000     0.843990000000     0.069210000000     0.0477633  
H266     H      0.296230000000     0.891460000000     0.090950000000     0.0622924  
H267     H      0.297090000000     0.878700000000     0.530240000000     0.021081   
H268     H      0.214660000000     0.847200000000     0.485190000000     0.0413844  
H269     H      0.260200000000     0.880350000000     0.476610000000     0.0353853  
H270     H      0.307010000000     0.922900000000     0.065410000000     0.0799051  
H271     H      0.214220000000     0.583800000000     0.954510000000     0.0777588  
H272     H      0.214790000000     0.627860000000     0.994510000000     0.0460245  
H273     H      0.252530000000     0.622780000000     0.047130000000     0.0410219  
H274     H      0.301750000000     0.595880000000     0.033500000000     0.0395936  
H275     H      0.227320000000     0.655200000000     0.464540000000     0.0474339  
H276     H      0.228420000000     0.609080000000     0.423410000000     0.0611201  
H277     H      0.273790000000     0.624420000000     0.453630000000     0.0181061  
H278     H      0.285090000000     0.649720000000     0.048400000000     0.0396726  
H279     H      0.309220000000     0.623750000000     0.501890000000     0.0380403  
H280     H      0.249930000000     0.574170000000     0.433020000000     0.0721038  
H281     H      0.242570000000     0.934870000000     0.429620000000     0.075564   
H282     H      0.226320000000     0.973860000000     0.387340000000     0.0503467  
H283     H      0.250010000000     0.033220000000     0.390660000000     0.0395459  
H284     H      0.303610000000     0.531760000000     0.412250000000     0.031831   
H285     H      0.241320000000     0.949400000000     0.356010000000     0.048958   
H286     H      0.258760000000     0.909170000000     0.399740000000     0.0627173  
H287     H      0.293360000000     0.450020000000     0.379510000000     0.0181091  
H288     H      0.277590000000     0.543740000000     0.360020000000     0.037029   
H289     H      0.315750000000     0.505630000000     0.380610000000     0.03358    
H290     H      0.283060000000     0.922740000000     0.432000000000     0.0714163  
H291     H      0.173860000000     0.017910000000     0.168220000000     0.066928   
H292     H      0.197750000000     0.035200000000     0.114190000000     0.0470906  
H293     H      0.250850000000     0.564830000000     0.117950000000     0.0371463  
H294     H      0.277930000000     0.547960000000     0.165060000000     0.0380914  
H295     H      0.197940000000     0.996380000000     0.096810000000     0.0504267  
H296     H      0.167210000000     0.982490000000     0.145400000000     0.0617205  
H297     H      0.226360000000     0.974770000000     0.142450000000     0.0219013  
H298     H      0.285410000000     0.544870000000     0.104850000000     0.0399095  
H299     H      0.283760000000     0.509260000000     0.149400000000     0.038165   
H300     H      0.185510000000     0.979980000000     0.183620000000     0.076672   
H301     H      0.450610000000     0.721240000000     0.436810000000     0.0706205  
H302     H      0.468120000000     0.761580000000     0.393000000000     0.0453555  
H303     H      0.525350000000     0.790930000000     0.393590000000     0.0418278  
H304     H      0.058440000000     0.758760000000     0.427070000000     0.0355647  
H305     H      0.463790000000     0.730700000000     0.363780000000     0.0439419  
H306     H      0.447030000000     0.692870000000     0.405090000000     0.0587237  
H307     H      0.003580000000     0.698750000000     0.391790000000     0.0184171  
H308     H      0.054520000000     0.773990000000     0.368140000000     0.0414657  
H309     H      0.056110000000     0.726470000000     0.399500000000     0.0354212  
H310     H      0.471360000000     0.683950000000     0.438560000000     0.0780281  
H311     H      0.447510000000     0.724260000000     0.186900000000     0.0773963  
H312     H      0.448330000000     0.766690000000     0.143460000000     0.0458871  
H313     H      0.987770000000     0.813400000000     0.140780000000     0.0389937  
H314     H      0.036210000000     0.798420000000     0.168150000000     0.0361233  
H315     H      0.452660000000     0.735200000000     0.115070000000     0.0449595  
H316     H      0.457380000000     0.693390000000     0.159510000000     0.0619395  
H317     H      0.502970000000     0.720580000000     0.140020000000     0.0224182  
H318     H      0.018890000000     0.811140000000     0.111660000000     0.0375345  
H319     H      0.042780000000     0.766830000000     0.140170000000     0.0354587  
H320     H      0.482500000000     0.700690000000     0.192950000000     0.0733785  
H321     H      0.078500000000     0.057580000000     0.311810000000     0.0775697  
H322     H      0.124470000000     0.020890000000     0.309350000000     0.0440999  
H323     H      0.119810000000     0.970860000000     0.269730000000     0.0373467  
H324     H      0.092360000000     0.984660000000     0.219620000000     0.0382914  
H325     H      0.150520000000     0.551660000000     0.297190000000     0.0473622  
H326     H      0.102990000000     0.589720000000     0.299750000000     0.0622945  
H327     H      0.118580000000     0.563460000000     0.250900000000     0.0190791  
H328     H      0.146160000000     0.970470000000     0.236040000000     0.0352765  
H329     H      0.119370000000     0.516480000000     0.212650000000     0.0361764  
H330     H      0.068600000000     0.581070000000     0.276930000000     0.0742021  
H331     H      0.326620000000     0.504390000000     0.320510000000     0.0722264  
H332     H      0.379500000000     0.481000000000     0.298920000000     0.0463015  
H333     H      0.382390000000     0.957830000000     0.239990000000     0.0387758  
H334     H      0.339850000000     0.981350000000     0.211520000000     0.0351554  
H335     H      0.399810000000     0.517360000000     0.306330000000     0.0483553  
H336     H      0.353050000000     0.535290000000     0.332350000000     0.0606518  
H337     H      0.362630000000     0.546330000000     0.272430000000     0.0219523  
H338     H      0.399830000000     0.982200000000     0.209980000000     0.0436929  
H339     H      0.357900000000     0.019330000000     0.212100000000     0.0328008  
H340     H      0.318950000000     0.545090000000     0.310330000000     0.0789072  
H341     H      0.068500000000     0.930860000000     0.264110000000     0.0709844  
H342     H      0.048440000000     0.878270000000     0.288600000000     0.0476543  
H343     H      0.989590000000     0.876360000000     0.313020000000     0.0389493  
H344     H      0.460910000000     0.917390000000     0.286790000000     0.0363984  
H345     H      0.054320000000     0.857200000000     0.251730000000     0.0477838  
H346     H      0.078850000000     0.905440000000     0.231180000000     0.0615732  
H347     H      0.520860000000     0.894270000000     0.222580000000     0.0219306  
H348     H      0.460730000000     0.857460000000     0.288690000000     0.0419021  
H349     H      0.463260000000     0.897960000000     0.248830000000     0.0386721  
H350     H      0.056140000000     0.939850000000     0.223740000000     0.0768821  
H351     H      0.453350000000     0.677760000000     0.307510000000     0.0762096  
H352     H      0.449200000000     0.638570000000     0.261310000000     0.0454721  
H353     H      0.484460000000     0.639220000000     0.209910000000     0.0365095  
H354     H      0.034550000000     0.664140000000     0.223000000000     0.0349448  
H355     H      0.455850000000     0.608080000000     0.290290000000     0.0461587  
H356     H      0.465450000000     0.648390000000     0.335670000000     0.0601529  
H357     H      0.007790000000     0.630530000000     0.302250000000     0.0222879  
H358     H      0.014930000000     0.610000000000     0.207130000000     0.0391674  
H359     H      0.043250000000     0.633910000000     0.251930000000     0.0361321  
H360     H      0.490500000000     0.681380000000     0.328260000000     0.0721977  
H361     H      0.418630000000     0.772020000000     0.945150000000     0.0672498  
H362     H      0.365350000000     0.746060000000     0.959750000000     0.0435804  
H363     H      0.372110000000     0.712070000000     0.513220000000     0.0398497  
H364     H      0.405020000000     0.738320000000     0.553760000000     0.0385373  
H365     H      0.342740000000     0.781550000000     0.963350000000     0.0457335  
H366     H      0.391750000000     0.803950000000     0.938290000000     0.0615581  
H367     H      0.381150000000     0.805600000000     0.998350000000     0.0207493  
H368     H      0.349810000000     0.723870000000     0.547450000000     0.0415898  
H369     H      0.380780000000     0.772610000000     0.551550000000     0.0389518  
H370     H      0.425610000000     0.810660000000     0.962120000000     0.0795589  
H371     H      0.084760000000     0.743010000000     0.596060000000     0.0711908  
H372     H      0.137490000000     0.722570000000     0.574410000000     0.0467474  
H373     H      0.135320000000     0.695490000000     0.517400000000     0.0385595  
H374     H      0.093400000000     0.718290000000     0.986640000000     0.0368807  
H375     H      0.156750000000     0.760220000000     0.576800000000     0.0468525  
H376     H      0.107700000000     0.777680000000     0.604550000000     0.0625263  
H377     H      0.115790000000     0.785270000000     0.044910000000     0.0231233  
H378     H      0.152320000000     0.716310000000     0.984480000000     0.0418659  
H379     H      0.111970000000     0.756120000000     0.986360000000     0.0412642  
H380     H      0.071850000000     0.781360000000     0.082890000000     0.0744856  
H381     H      0.267780000000     0.921430000000     0.582000000000     0.073361   
H382     H      0.237710000000     0.868080000000     0.570360000000     0.0449121  
H383     H      0.203020000000     0.870220000000     0.519090000000     0.0389723  
H384     H      0.225930000000     0.904350000000     0.978950000000     0.0366747  
H385     H      0.272310000000     0.843990000000     0.569210000000     0.0477402  
H386     H      0.296230000000     0.891460000000     0.590950000000     0.0623237  
H387     H      0.297090000000     0.878700000000     0.030240000000     0.020733   
H388     H      0.214660000000     0.847200000000     0.985190000000     0.0430034  
H389     H      0.260200000000     0.880350000000     0.976610000000     0.0350792  
H390     H      0.307010000000     0.922900000000     0.565410000000     0.0799737  
H391     H      0.214220000000     0.583800000000     0.454510000000     0.0776517  
H392     H      0.214790000000     0.627860000000     0.494510000000     0.0457925  
H393     H      0.252530000000     0.622780000000     0.547130000000     0.0413063  
H394     H      0.301750000000     0.595880000000     0.533510000000     0.0395252  
H395     H      0.227320000000     0.655200000000     0.964540000000     0.0473838  
H396     H      0.228420000000     0.609080000000     0.923410000000     0.0611613  
H397     H      0.273790000000     0.624420000000     0.953630000000     0.0183947  
H398     H      0.285090000000     0.649720000000     0.548400000000     0.0397234  
H399     H      0.309220000000     0.623750000000     0.001890000000     0.0378339  
H400     H      0.249930000000     0.574170000000     0.933020000000     0.0721267  
H401     H      0.242570000000     0.934870000000     0.929620000000     0.07572    
H402     H      0.226320000000     0.973860000000     0.887340000000     0.0504     
H403     H      0.250010000000     0.033220000000     0.890660000000     0.0395641  
H404     H      0.303610000000     0.531760000000     0.912250000000     0.0319618  
H405     H      0.241320000000     0.949400000000     0.856010000000     0.0489843  
H406     H      0.258760000000     0.909170000000     0.899740000000     0.0627944  
H407     H      0.293360000000     0.450020000000     0.879510000000     0.0181375  
H408     H      0.277590000000     0.543740000000     0.860020000000     0.0370483  
H409     H      0.315750000000     0.505630000000     0.880610000000     0.0336486  
H410     H      0.283060000000     0.922740000000     0.932000000000     0.0716342  
H411     H      0.173860000000     0.017910000000     0.668220000000     0.0669475  
H412     H      0.197750000000     0.035200000000     0.614190000000     0.0471986  
H413     H      0.250850000000     0.564830000000     0.617950000000     0.0372003  
H414     H      0.277930000000     0.547960000000     0.665060000000     0.0380989  
H415     H      0.197940000000     0.996380000000     0.596810000000     0.0505715  
H416     H      0.167210000000     0.982490000000     0.645400000000     0.0617924  
H417     H      0.226360000000     0.974770000000     0.642450000000     0.0219007  
H418     H      0.285410000000     0.544870000000     0.604850000000     0.0399518  
H419     H      0.283760000000     0.509260000000     0.649400000000     0.0381711  
H420     H      0.185510000000     0.979980000000     0.683620000000     0.0766845  
H421     H      0.450610000000     0.721240000000     0.936810000000     0.0708678  
H422     H      0.468120000000     0.761580000000     0.893000000000     0.0454193  
H423     H      0.525350000000     0.790930000000     0.893590000000     0.0419272  
H424     H      0.058440000000     0.758760000000     0.927070000000     0.0357079  
H425     H      0.463790000000     0.730700000000     0.863780000000     0.0439644  
H426     H      0.447030000000     0.692870000000     0.905090000000     0.0588569  
H427     H      0.003580000000     0.698750000000     0.891790000000     0.0184542  
H428     H      0.054520000000     0.773990000000     0.868140000000     0.0415076  
H429     H      0.056110000000     0.726470000000     0.899500000000     0.0354838  
H430     H      0.471360000000     0.683950000000     0.938560000000     0.078299   
H431     H      0.447510000000     0.724260000000     0.686900000000     0.0773996  
H432     H      0.448330000000     0.766690000000     0.643460000000     0.0459003  
H433     H      0.987770000000     0.813400000000     0.640780000000     0.0390209  
H434     H      0.036210000000     0.798420000000     0.668150000000     0.0361355  
H435     H      0.452660000000     0.735200000000     0.615070000000     0.0449803  
H436     H      0.457380000000     0.693390000000     0.659510000000     0.0619665  
H437     H      0.502970000000     0.720580000000     0.640020000000     0.0224371  
H438     H      0.018890000000     0.811140000000     0.611660000000     0.0375872  
H439     H      0.042780000000     0.766830000000     0.640170000000     0.0354635  
H440     H      0.482500000000     0.700690000000     0.692950000000     0.0733844  
H441     H      0.078500000000     0.057580000000     0.811810000000     0.0776199  
H442     H      0.124470000000     0.020890000000     0.809350000000     0.0441373  
H443     H      0.119810000000     0.970860000000     0.769730000000     0.0373593  
H444     H      0.092360000000     0.984660000000     0.719620000000     0.038331   
H445     H      0.150520000000     0.551660000000     0.797190000000     0.0473818  
H446     H      0.102990000000     0.589720000000     0.799750000000     0.0623254  
H447     H      0.118580000000     0.563460000000     0.750900000000     0.0190834  
H448     H      0.146160000000     0.970470000000     0.736040000000     0.0352801  
H449     H      0.119370000000     0.516480000000     0.712650000000     0.0361986  
H450     H      0.068600000000     0.581070000000     0.776930000000     0.0742176  
H451     H      0.326620000000     0.504390000000     0.820510000000     0.0722455  
H452     H      0.379500000000     0.481000000000     0.798920000000     0.0463326  
H453     H      0.382390000000     0.957830000000     0.739990000000     0.0387896  
H454     H      0.339850000000     0.981350000000     0.711520000000     0.0351609  
H455     H      0.399810000000     0.517360000000     0.806330000000     0.0483994  
H456     H      0.353050000000     0.535290000000     0.832350000000     0.0607112  
H457     H      0.362630000000     0.546330000000     0.772430000000     0.0219568  
H458     H      0.399830000000     0.982200000000     0.709980000000     0.0437244  
H459     H      0.357900000000     0.019330000000     0.712100000000     0.0327951  
H460     H      0.318950000000     0.545090000000     0.810330000000     0.0789242  
H461     H      0.068500000000     0.930860000000     0.764110000000     0.0710028  
H462     H      0.048440000000     0.878270000000     0.788610000000     0.0476689  
H463     H      0.989590000000     0.876360000000     0.813020000000     0.0390003  
H464     H      0.460910000000     0.917390000000     0.786790000000     0.0364264  
H465     H      0.054320000000     0.857200000000     0.751730000000     0.0477734  
H466     H      0.078850000000     0.905440000000     0.731180000000     0.0615902  
H467     H      0.520860000000     0.894270000000     0.722580000000     0.0219502  
H468     H      0.460730000000     0.857460000000     0.788690000000     0.0419221  
H469     H      0.463260000000     0.897960000000     0.748830000000     0.0386835  
H470     H      0.056140000000     0.939850000000     0.723740000000     0.0769046  
H471     H      0.453350000000     0.677760000000     0.807510000000     0.076225   
H472     H      0.449200000000     0.638570000000     0.761310000000     0.0454791  
H473     H      0.484460000000     0.639220000000     0.709910000000     0.0365257  
H474     H      0.034550000000     0.664140000000     0.723000000000     0.034955   
H475     H      0.455850000000     0.608080000000     0.790290000000     0.0461847  
H476     H      0.465450000000     0.648390000000     0.835670000000     0.0602115  
H477     H      0.007790000000     0.630530000000     0.802250000000     0.0223151  
H478     H      0.014930000000     0.610000000000     0.707130000000     0.0391956  
H479     H      0.043250000000     0.633910000000     0.751930000000     0.0361399  
H480     H      0.490500000000     0.681380000000     0.828260000000     0.0722181  
H481     H      0.918630000000     0.272020000000     0.445150000000     0.0668533  
H482     H      0.865350000000     0.246060000000     0.459750000000     0.0434346  
H483     H      0.872110000000     0.212060000000     0.013220000000     0.0394255  
H484     H      0.905020000000     0.238320000000     0.053760000000     0.0384853  
H485     H      0.842740000000     0.281550000000     0.463350000000     0.0456792  
H486     H      0.891750000000     0.303950000000     0.438290000000     0.0612502  
H487     H      0.881150000000     0.305600000000     0.498350000000     0.020262   
H488     H      0.849810000000     0.223870000000     0.047450000000     0.0415198  
H489     H      0.880780000000     0.272610000000     0.051550000000     0.0387444  
H490     H      0.925610000000     0.310660000000     0.462120000000     0.0787447  
H491     H      0.584760000000     0.243000000000     0.096060000000     0.0709637  
H492     H      0.637500000000     0.222570000000     0.074410000000     0.0466603  
H493     H      0.635320000000     0.195490000000     0.017400000000     0.0382482  
H494     H      0.593400000000     0.218290000000     0.486640000000     0.0351097  
H495     H      0.656750000000     0.260220000000     0.076800000000     0.0468009  
H496     H      0.607700000000     0.277680000000     0.104550000000     0.0624569  
H497     H      0.615790000000     0.285270000000     0.544910000000     0.0232239  
H498     H      0.652320000000     0.216310000000     0.484480000000     0.0408034  
H499     H      0.611970000000     0.256120000000     0.486360000000     0.0395787  
H500     H      0.571850000000     0.281360000000     0.582890000000     0.0742971  
H501     H      0.767780000000     0.421430000000     0.082000000000     0.0727969  
H502     H      0.737710000000     0.368080000000     0.070360000000     0.0448044  
H503     H      0.703020000000     0.370230000000     0.019090000000     0.0391117  
H504     H      0.725930000000     0.404350000000     0.478950000000     0.0367072  
H505     H      0.772310000000     0.343990000000     0.069210000000     0.0477154  
H506     H      0.796230000000     0.391460000000     0.090950000000     0.0620162  
H507     H      0.797090000000     0.378700000000     0.530240000000     0.0210184  
H508     H      0.714660000000     0.347200000000     0.485190000000     0.0412753  
H509     H      0.760200000000     0.380350000000     0.476610000000     0.0353388  
H510     H      0.807010000000     0.422900000000     0.065410000000     0.0794003  
H511     H      0.714230000000     0.083800000000     0.954510000000     0.0775401  
H512     H      0.714790000000     0.127860000000     0.994510000000     0.0459117  
H513     H      0.752530000000     0.122780000000     0.047130000000     0.0409766  
H514     H      0.801750000000     0.095880000000     0.033500000000     0.0393422  
H515     H      0.727320000000     0.155200000000     0.464540000000     0.047396   
H516     H      0.728420000000     0.109080000000     0.423410000000     0.061024   
H517     H      0.773790000000     0.124420000000     0.453630000000     0.0180534  
H518     H      0.785090000000     0.149720000000     0.048400000000     0.0396281  
H519     H      0.809220000000     0.123750000000     0.501890000000     0.0378569  
H520     H      0.749920000000     0.074170000000     0.433020000000     0.0718146  
H521     H      0.742570000000     0.434870000000     0.429620000000     0.0752725  
H522     H      0.726320000000     0.473860000000     0.387340000000     0.0493037  
H523     H      0.750010000000     0.533220000000     0.390660000000     0.0398222  
H524     H      0.803610000000     0.031770000000     0.412250000000     0.0315179  
H525     H      0.741320000000     0.449400000000     0.356010000000     0.0485378  
H526     H      0.758760000000     0.409170000000     0.399740000000     0.0625394  
H527     H      0.793360000000     0.950020000000     0.379510000000     0.0187151  
H528     H      0.777590000000     0.043740000000     0.360020000000     0.0375578  
H529     H      0.815750000000     0.005630000000     0.380610000000     0.0328744  
H530     H      0.783060000000     0.422740000000     0.432000000000     0.0712326  
H531     H      0.673860000000     0.517900000000     0.168220000000     0.0699625  
H532     H      0.697740000000     0.535200000000     0.114190000000     0.0457947  
H533     H      0.750850000000     0.064830000000     0.117950000000     0.0372255  
H534     H      0.777930000000     0.047960000000     0.165060000000     0.0379068  
H535     H      0.697940000000     0.496380000000     0.096810000000     0.0456555  
H536     H      0.667210000000     0.482490000000     0.145400000000     0.0614388  
H537     H      0.726360000000     0.474770000000     0.142450000000     0.022476   
H538     H      0.785410000000     0.044870000000     0.104850000000     0.03966    
H539     H      0.783760000000     0.009260000000     0.149400000000     0.0369608  
H540     H      0.685510000000     0.479980000000     0.183620000000     0.0766159  
H541     H      0.950600000000     0.221240000000     0.436810000000     0.0701887  
H542     H      0.968120000000     0.261580000000     0.393000000000     0.0450769  
H543     H      0.025350000000     0.290930000000     0.393590000000     0.0420096  
H544     H      0.558440000000     0.258760000000     0.427070000000     0.0354884  
H545     H      0.963790000000     0.230710000000     0.363780000000     0.0438559  
H546     H      0.947030000000     0.192870000000     0.405090000000     0.0583587  
H547     H      0.503580000000     0.198750000000     0.391790000000     0.01671    
H548     H      0.554520000000     0.273990000000     0.368140000000     0.0414077  
H549     H      0.556110000000     0.226470000000     0.399500000000     0.0352824  
H550     H      0.971360000000     0.183950000000     0.438560000000     0.0772756  
H551     H      0.947510000000     0.224260000000     0.186900000000     0.0771658  
H552     H      0.948330000000     0.266690000000     0.143460000000     0.0455943  
H553     H      0.487770000000     0.313400000000     0.140780000000     0.0405053  
H554     H      0.536210000000     0.298420000000     0.168150000000     0.0357814  
H555     H      0.952660000000     0.235200000000     0.115070000000     0.0446796  
H556     H      0.957380000000     0.193390000000     0.159510000000     0.0614936  
H557     H      0.002980000000     0.220580000000     0.140020000000     0.024094   
H558     H      0.518890000000     0.311140000000     0.111660000000     0.0376419  
H559     H      0.542780000000     0.266830000000     0.140170000000     0.0351733  
H560     H      0.982500000000     0.200690000000     0.192950000000     0.0726907  
H561     H      0.578500000000     0.557580000000     0.311810000000     0.077734   
H562     H      0.624470000000     0.520890000000     0.309350000000     0.0449841  
H563     H      0.619810000000     0.470860000000     0.269730000000     0.0379783  
H564     H      0.592360000000     0.484660000000     0.219620000000     0.033537   
H565     H      0.650520000000     0.051660000000     0.297190000000     0.0471763  
H566     H      0.602990000000     0.089720000000     0.299750000000     0.0620728  
H567     H      0.618580000000     0.063460000000     0.250900000000     0.0191514  
H568     H      0.646160000000     0.470470000000     0.236040000000     0.0363092  
H569     H      0.619370000000     0.016480000000     0.212650000000     0.0372504  
H570     H      0.568600000000     0.081070000000     0.276930000000     0.0739357  
H571     H      0.826620000000     0.004390000000     0.320510000000     0.0712995  
H572     H      0.879500000000     0.981000000000     0.298920000000     0.050698   
H573     H      0.882390000000     0.457830000000     0.239990000000     0.0377882  
H574     H      0.839850000000     0.481360000000     0.211520000000     0.0358036  
H575     H      0.899810000000     0.017360000000     0.306330000000     0.0494629  
H576     H      0.853050000000     0.035290000000     0.332350000000     0.0603811  
H577     H      0.862630000000     0.046330000000     0.272430000000     0.0214264  
H578     H      0.899830000000     0.482200000000     0.209980000000     0.0417292  
H579     H      0.857900000000     0.519330000000     0.212100000000     0.0368193  
H580     H      0.818950000000     0.045090000000     0.310330000000     0.0789979  
H581     H      0.568500000000     0.430860000000     0.264110000000     0.0703441  
H582     H      0.548440000000     0.378270000000     0.288600000000     0.0472926  
H583     H      0.489590000000     0.376360000000     0.313020000000     0.0390328  
H584     H      0.960910000000     0.417390000000     0.286790000000     0.0358228  
H585     H      0.554320000000     0.357200000000     0.251730000000     0.0477195  
H586     H      0.578850000000     0.405440000000     0.231180000000     0.0612904  
H587     H      0.020860000000     0.394270000000     0.222580000000     0.0221312  
H588     H      0.960740000000     0.357460000000     0.288690000000     0.04187    
H589     H      0.963260000000     0.397960000000     0.248830000000     0.0382713  
H590     H      0.556140000000     0.439850000000     0.223740000000     0.0761887  
H591     H      0.953350000000     0.177760000000     0.307510000000     0.0759718  
H592     H      0.949200000000     0.138570000000     0.261310000000     0.0452286  
H593     H      0.984460000000     0.139220000000     0.209910000000     0.034913   
H594     H      0.534550000000     0.164140000000     0.223000000000     0.0345606  
H595     H      0.955850000000     0.108080000000     0.290290000000     0.0458233  
H596     H      0.965450000000     0.148390000000     0.335670000000     0.0596164  
H597     H      0.507790000000     0.130530000000     0.302250000000     0.0205724  
H598     H      0.514930000000     0.109990000000     0.207130000000     0.0391843  
H599     H      0.543250000000     0.133910000000     0.251930000000     0.0358415  
H600     H      0.990500000000     0.181380000000     0.328260000000     0.0714045  
H601     H      0.918630000000     0.272020000000     0.945150000000     0.0671134  
H602     H      0.865350000000     0.246060000000     0.959750000000     0.0435649  
H603     H      0.872110000000     0.212060000000     0.513220000000     0.03974    
H604     H      0.905020000000     0.238320000000     0.553760000000     0.0384956  
H605     H      0.842740000000     0.281550000000     0.963350000000     0.0457033  
H606     H      0.891750000000     0.303950000000     0.938290000000     0.0613813  
H607     H      0.881150000000     0.305600000000     0.998350000000     0.0206225  
H608     H      0.849810000000     0.223870000000     0.547450000000     0.0415331  
H609     H      0.880780000000     0.272610000000     0.551550000000     0.0388928  
H610     H      0.925610000000     0.310660000000     0.962120000000     0.0791862  
H611     H      0.584760000000     0.243000000000     0.596060000000     0.0709417  
H612     H      0.637500000000     0.222570000000     0.574410000000     0.0466716  
H613     H      0.635320000000     0.195490000000     0.517400000000     0.0384187  
H614     H      0.593400000000     0.218290000000     0.986640000000     0.0367461  
H615     H      0.656750000000     0.260220000000     0.576800000000     0.0468135  
H616     H      0.607700000000     0.277680000000     0.604550000000     0.0624352  
H617     H      0.615790000000     0.285270000000     0.044910000000     0.0230352  
H618     H      0.652320000000     0.216310000000     0.984480000000     0.0418015  
H619     H      0.611970000000     0.256120000000     0.986360000000     0.0411978  
H620     H      0.571850000000     0.281360000000     0.082890000000     0.0742779  
H621     H      0.767780000000     0.421430000000     0.582000000000     0.0728001  
H622     H      0.737710000000     0.368080000000     0.570360000000     0.044772   
H623     H      0.703020000000     0.370230000000     0.519090000000     0.0387209  
H624     H      0.725930000000     0.404350000000     0.978950000000     0.0364429  
H625     H      0.772310000000     0.343990000000     0.569210000000     0.0476923  
H626     H      0.796230000000     0.391460000000     0.590950000000     0.0620455  
H627     H      0.797090000000     0.378700000000     0.030240000000     0.0206763  
H628     H      0.714660000000     0.347200000000     0.985190000000     0.0428735  
H629     H      0.760200000000     0.380350000000     0.976610000000     0.035037   
H630     H      0.807010000000     0.422900000000     0.565410000000     0.0794647  
H631     H      0.714230000000     0.083800000000     0.454510000000     0.0774345  
H632     H      0.714790000000     0.127860000000     0.494510000000     0.0456816  
H633     H      0.752530000000     0.122780000000     0.547130000000     0.0412561  
H634     H      0.801750000000     0.095880000000     0.533510000000     0.0392726  
H635     H      0.727320000000     0.155200000000     0.964540000000     0.047347   
H636     H      0.728420000000     0.109080000000     0.923410000000     0.0610646  
H637     H      0.773790000000     0.124420000000     0.953630000000     0.0183377  
H638     H      0.785090000000     0.149720000000     0.548400000000     0.0396777  
H639     H      0.809220000000     0.123750000000     0.001890000000     0.037656   
H640     H      0.749920000000     0.074170000000     0.933020000000     0.0718367  
H641     H      0.742570000000     0.434870000000     0.929620000000     0.075426   
H642     H      0.726320000000     0.473860000000     0.887340000000     0.0493545  
H643     H      0.750010000000     0.533220000000     0.890660000000     0.0398411  
H644     H      0.803610000000     0.031770000000     0.912250000000     0.0316471  
H645     H      0.741320000000     0.449400000000     0.856010000000     0.0485628  
H646     H      0.758760000000     0.409170000000     0.899740000000     0.0626154  
H647     H      0.793360000000     0.950020000000     0.879510000000     0.0187451  
H648     H      0.777590000000     0.043740000000     0.860020000000     0.0375785  
H649     H      0.815750000000     0.005630000000     0.880610000000     0.0329407  
H650     H      0.783060000000     0.422740000000     0.932000000000     0.0714473  
H651     H      0.673860000000     0.517900000000     0.668220000000     0.0699969  
H652     H      0.697740000000     0.535200000000     0.614190000000     0.0458962  
H653     H      0.750850000000     0.064830000000     0.617950000000     0.037279   
H654     H      0.777930000000     0.047960000000     0.665060000000     0.0379131  
H655     H      0.697940000000     0.496380000000     0.596810000000     0.0457718  
H656     H      0.667210000000     0.482490000000     0.645400000000     0.0615085  
H657     H      0.726360000000     0.474770000000     0.642450000000     0.0224786  
H658     H      0.785410000000     0.044870000000     0.604850000000     0.0396999  
H659     H      0.783760000000     0.009260000000     0.649400000000     0.0369603  
H660     H      0.685510000000     0.479980000000     0.683620000000     0.076628   
H661     H      0.950600000000     0.221240000000     0.936810000000     0.0704314  
H662     H      0.968120000000     0.261580000000     0.893000000000     0.0451394  
H663     H      0.025350000000     0.290930000000     0.893590000000     0.0421082  
H664     H      0.558440000000     0.258760000000     0.927070000000     0.0356303  
H665     H      0.963790000000     0.230710000000     0.863780000000     0.043878   
H666     H      0.947030000000     0.192870000000     0.905090000000     0.0584894  
H667     H      0.503580000000     0.198750000000     0.891790000000     0.0167439  
H668     H      0.554520000000     0.273990000000     0.868140000000     0.0414492  
H669     H      0.556110000000     0.226470000000     0.899500000000     0.0353443  
H670     H      0.971360000000     0.183950000000     0.938560000000     0.0775413  
H671     H      0.947510000000     0.224260000000     0.686900000000     0.0771679  
H672     H      0.948330000000     0.266690000000     0.643460000000     0.0456058  
H673     H      0.487770000000     0.313400000000     0.640780000000     0.0405402  
H674     H      0.536210000000     0.298420000000     0.668150000000     0.0357919  
H675     H      0.952660000000     0.235200000000     0.615070000000     0.0446986  
H676     H      0.957380000000     0.193390000000     0.659510000000     0.0615177  
H677     H      0.002980000000     0.220580000000     0.640020000000     0.0241206  
H678     H      0.518890000000     0.311140000000     0.611660000000     0.0376947  
H679     H      0.542780000000     0.266830000000     0.640170000000     0.0351765  
H680     H      0.982500000000     0.200690000000     0.692950000000     0.0726933  
H681     H      0.578500000000     0.557580000000     0.811810000000     0.0777852  
H682     H      0.624470000000     0.520890000000     0.809350000000     0.0450247  
H683     H      0.619810000000     0.470860000000     0.769730000000     0.0379942  
H684     H      0.592360000000     0.484660000000     0.719620000000     0.0335572  
H685     H      0.650520000000     0.051660000000     0.797190000000     0.0471955  
H686     H      0.602990000000     0.089720000000     0.799750000000     0.0621031  
H687     H      0.618580000000     0.063460000000     0.750900000000     0.0191557  
H688     H      0.646160000000     0.470470000000     0.736040000000     0.0363168  
H689     H      0.619370000000     0.016480000000     0.712650000000     0.0372761  
H690     H      0.568600000000     0.081070000000     0.776930000000     0.0739504  
H691     H      0.826620000000     0.004390000000     0.820510000000     0.0713157  
H692     H      0.879500000000     0.981000000000     0.798920000000     0.0507436  
H693     H      0.882390000000     0.457830000000     0.739990000000     0.037798   
H694     H      0.839850000000     0.481360000000     0.711520000000     0.0358111  
H695     H      0.899810000000     0.017360000000     0.806330000000     0.0495109  
H696     H      0.853050000000     0.035290000000     0.832350000000     0.0604396  
H697     H      0.862630000000     0.046330000000     0.772430000000     0.0214288  
H698     H      0.899830000000     0.482200000000     0.709980000000     0.0417522  
H699     H      0.857900000000     0.519330000000     0.712100000000     0.0368304  
H700     H      0.818950000000     0.045090000000     0.810330000000     0.0790152  
H701     H      0.568500000000     0.430860000000     0.764110000000     0.0703605  
H702     H      0.548440000000     0.378270000000     0.788610000000     0.0473063  
H703     H      0.489590000000     0.376360000000     0.813020000000     0.0390845  
H704     H      0.960910000000     0.417390000000     0.786790000000     0.035849   
H705     H      0.554320000000     0.357200000000     0.751730000000     0.0477088  
H706     H      0.578850000000     0.405440000000     0.731180000000     0.0613063  
H707     H      0.020860000000     0.394270000000     0.722580000000     0.022151   
H708     H      0.960740000000     0.357460000000     0.788690000000     0.0418896  
H709     H      0.963260000000     0.397960000000     0.748830000000     0.0382809  
H710     H      0.556140000000     0.439850000000     0.723740000000     0.0762082  
H711     H      0.953350000000     0.177760000000     0.807510000000     0.0759863  
H712     H      0.949200000000     0.138570000000     0.761310000000     0.0452346  
H713     H      0.984460000000     0.139220000000     0.709910000000     0.0349227  
H714     H      0.534550000000     0.164140000000     0.723000000000     0.0345692  
H715     H      0.955850000000     0.108080000000     0.790290000000     0.0458481  
H716     H      0.965450000000     0.148390000000     0.835670000000     0.059673   
H717     H      0.507790000000     0.130530000000     0.802250000000     0.0205948  
H718     H      0.514930000000     0.109990000000     0.707130000000     0.0392119  
H719     H      0.543250000000     0.133910000000     0.751930000000     0.0358482  
H720     H      0.990500000000     0.181380000000     0.828260000000     0.0714222  
H721     H      0.918630000000     0.772020000000     0.445150000000     0.0668804  
H722     H      0.865350000000     0.746060000000     0.459750000000     0.0434382  
H723     H      0.872110000000     0.712070000000     0.013220000000     0.0395045  
H724     H      0.905020000000     0.738320000000     0.053760000000     0.0385122  
H725     H      0.842740000000     0.781550000000     0.463350000000     0.0457001  
H726     H      0.891750000000     0.803950000000     0.438290000000     0.061346   
H727     H      0.881150000000     0.805600000000     0.498350000000     0.0203446  
H728     H      0.849810000000     0.723870000000     0.047450000000     0.0415674  
H729     H      0.880780000000     0.772610000000     0.051550000000     0.0387777  
H730     H      0.925610000000     0.810660000000     0.462120000000     0.0788874  
H731     H      0.584760000000     0.743010000000     0.096060000000     0.0710871  
H732     H      0.637500000000     0.722570000000     0.074410000000     0.0466977  
H733     H      0.635320000000     0.695490000000     0.017400000000     0.0383221  
H734     H      0.593400000000     0.718290000000     0.486640000000     0.0351578  
H735     H      0.656750000000     0.760220000000     0.076800000000     0.0468288  
H736     H      0.607700000000     0.777680000000     0.104550000000     0.0625027  
H737     H      0.615790000000     0.785270000000     0.544910000000     0.0232948  
H738     H      0.652320000000     0.716310000000     0.484480000000     0.0408335  
H739     H      0.611970000000     0.756120000000     0.486360000000     0.0396105  
H740     H      0.571850000000     0.781360000000     0.582890000000     0.0743423  
H741     H      0.767780000000     0.921430000000     0.082000000000     0.0733453  
H742     H      0.737710000000     0.868080000000     0.070360000000     0.0449363  
H743     H      0.703020000000     0.870220000000     0.019090000000     0.0393393  
H744     H      0.725930000000     0.904350000000     0.478950000000     0.0369255  
H745     H      0.772310000000     0.843990000000     0.069210000000     0.0477578  
H746     H      0.796230000000     0.891460000000     0.090950000000     0.0622684  
H747     H      0.797090000000     0.878700000000     0.530240000000     0.0210601  
H748     H      0.714660000000     0.847200000000     0.485190000000     0.041371   
H749     H      0.760200000000     0.880350000000     0.476610000000     0.0353793  
H750     H      0.807010000000     0.922900000000     0.065410000000     0.0798663  
H751     H      0.714230000000     0.583800000000     0.954510000000     0.077801   
H752     H      0.714790000000     0.627860000000     0.994510000000     0.0459985  
H753     H      0.752530000000     0.622780000000     0.047130000000     0.0410135  
H754     H      0.801750000000     0.595880000000     0.033500000000     0.0395708  
H755     H      0.727320000000     0.655200000000     0.464540000000     0.0474279  
H756     H      0.728420000000     0.609080000000     0.423410000000     0.0611447  
H757     H      0.773790000000     0.624420000000     0.453630000000     0.0180944  
H758     H      0.785090000000     0.649720000000     0.048400000000     0.0396675  
H759     H      0.809220000000     0.623750000000     0.501890000000     0.0380179  
H760     H      0.749920000000     0.574170000000     0.433020000000     0.0721575  
H761     H      0.742570000000     0.934870000000     0.429620000000     0.0755507  
H762     H      0.726320000000     0.973860000000     0.387340000000     0.0503261  
H763     H      0.750010000000     0.033220000000     0.390660000000     0.0395336  
H764     H      0.803610000000     0.531760000000     0.412250000000     0.0318095  
H765     H      0.741320000000     0.949400000000     0.356010000000     0.0489498  
H766     H      0.758760000000     0.909170000000     0.399740000000     0.062707   
H767     H      0.793360000000     0.450020000000     0.379510000000     0.0180943  
H768     H      0.777590000000     0.543740000000     0.360020000000     0.0370273  
H769     H      0.815750000000     0.505630000000     0.380610000000     0.0335541  
H770     H      0.783060000000     0.922740000000     0.432000000000     0.0713969  
H771     H      0.673860000000     0.017910000000     0.168220000000     0.0668808  
H772     H      0.697740000000     0.035200000000     0.114190000000     0.0470243  
H773     H      0.750850000000     0.564830000000     0.117950000000     0.0371363  
H774     H      0.777930000000     0.547960000000     0.165060000000     0.0380879  
H775     H      0.697940000000     0.996380000000     0.096810000000     0.0503768  
H776     H      0.667210000000     0.982490000000     0.145400000000     0.0616581  
H777     H      0.726360000000     0.974770000000     0.142450000000     0.0219014  
H778     H      0.785410000000     0.544870000000     0.104850000000     0.0398881  
H779     H      0.783760000000     0.509260000000     0.149400000000     0.038154   
H780     H      0.685510000000     0.979980000000     0.183620000000     0.0766555  
H781     H      0.950600000000     0.721240000000     0.436810000000     0.0702172  
H782     H      0.968120000000     0.761580000000     0.393000000000     0.0451067  
H783     H      0.025350000000     0.790930000000     0.393590000000     0.0421114  
H784     H      0.558440000000     0.758760000000     0.427070000000     0.0355304  
H785     H      0.963790000000     0.730700000000     0.363780000000     0.0438539  
H786     H      0.947030000000     0.692870000000     0.405090000000     0.0584297  
H787     H      0.503580000000     0.698750000000     0.391790000000     0.0167545  
H788     H      0.554520000000     0.773990000000     0.368140000000     0.0414599  
H789     H      0.556110000000     0.726470000000     0.399500000000     0.0353089  
H790     H      0.971360000000     0.683950000000     0.438560000000     0.0774055  
H791     H      0.947510000000     0.724260000000     0.186900000000     0.0771803  
H792     H      0.948330000000     0.766690000000     0.143460000000     0.0456298  
H793     H      0.487770000000     0.813400000000     0.140780000000     0.040626   
H794     H      0.536210000000     0.798420000000     0.168150000000     0.0358198  
H795     H      0.952660000000     0.735200000000     0.115070000000     0.0447151  
H796     H      0.957380000000     0.693390000000     0.159510000000     0.0615639  
H797     H      0.002980000000     0.720580000000     0.140020000000     0.0241174  
H798     H      0.518890000000     0.811140000000     0.111660000000     0.0377702  
H799     H      0.542780000000     0.766830000000     0.140170000000     0.0351803  
H800     H      0.982500000000     0.700690000000     0.192950000000     0.0727141  
H801     H      0.578500000000     0.057580000000     0.311810000000     0.0773686  
H802     H      0.624470000000     0.020890000000     0.309350000000     0.0440449  
H803     H      0.619810000000     0.970860000000     0.269730000000     0.0373113  
H804     H      0.592360000000     0.984660000000     0.219620000000     0.038234   
H805     H      0.650520000000     0.551660000000     0.297190000000     0.0473402  
H806     H      0.602990000000     0.589720000000     0.299750000000     0.0622097  
H807     H      0.618580000000     0.563460000000     0.250900000000     0.0190507  
H808     H      0.646160000000     0.970470000000     0.236040000000     0.0352607  
H809     H      0.619370000000     0.516480000000     0.212650000000     0.0361156  
H810     H      0.568600000000     0.581070000000     0.276930000000     0.0739902  
H811     H      0.826620000000     0.504390000000     0.320510000000     0.0722146  
H812     H      0.879500000000     0.481000000000     0.298920000000     0.0462505  
H813     H      0.882390000000     0.957830000000     0.239990000000     0.0387185  
H814     H      0.839850000000     0.981350000000     0.211520000000     0.0351367  
H815     H      0.899810000000     0.517360000000     0.306330000000     0.0483059  
H816     H      0.853050000000     0.535290000000     0.332350000000     0.0606198  
H817     H      0.862630000000     0.546330000000     0.272430000000     0.0219537  
H818     H      0.899830000000     0.982200000000     0.209980000000     0.0435988  
H819     H      0.857900000000     0.019330000000     0.212100000000     0.0327804  
H820     H      0.818950000000     0.545090000000     0.310330000000     0.0789055  
H821     H      0.568500000000     0.930860000000     0.264110000000     0.0709173  
H822     H      0.548440000000     0.878270000000     0.288600000000     0.0475045  
H823     H      0.489590000000     0.876360000000     0.313020000000     0.0392596  
H824     H      0.960910000000     0.917390000000     0.286790000000     0.0363181  
H825     H      0.554320000000     0.857200000000     0.251730000000     0.0477908  
H826     H      0.578850000000     0.905440000000     0.231180000000     0.061518   
H827     H      0.020860000000     0.894270000000     0.222580000000     0.0222511  
H828     H      0.960740000000     0.857460000000     0.288690000000     0.0419618  
H829     H      0.963260000000     0.897960000000     0.248830000000     0.0385133  
H830     H      0.556140000000     0.939850000000     0.223740000000     0.0767704  
H831     H      0.953350000000     0.677760000000     0.307510000000     0.0759837  
H832     H      0.949200000000     0.638570000000     0.261310000000     0.0452553  
H833     H      0.984460000000     0.639220000000     0.209910000000     0.0349905  
H834     H      0.534550000000     0.664140000000     0.223000000000     0.0345857  
H835     H      0.955850000000     0.608080000000     0.290290000000     0.0459006  
H836     H      0.965450000000     0.648390000000     0.335670000000     0.0597162  
H837     H      0.507790000000     0.630530000000     0.302250000000     0.0206237  
H838     H      0.514930000000     0.610000000000     0.207130000000     0.0393118  
H839     H      0.543250000000     0.633910000000     0.251930000000     0.035853   
H840     H      0.990500000000     0.681380000000     0.328260000000     0.0714341  
H841     H      0.918630000000     0.772020000000     0.945150000000     0.0671431  
H842     H      0.865350000000     0.746060000000     0.959750000000     0.0435698  
H843     H      0.872110000000     0.712070000000     0.513220000000     0.0398235  
H844     H      0.905020000000     0.738320000000     0.553760000000     0.0385228  
H845     H      0.842740000000     0.781550000000     0.963350000000     0.0457243  
H846     H      0.891750000000     0.803950000000     0.938290000000     0.0614783  
H847     H      0.881150000000     0.805600000000     0.998350000000     0.0207077  
H848     H      0.849810000000     0.723870000000     0.547450000000     0.0415811  
H849     H      0.880780000000     0.772610000000     0.551550000000     0.0389278  
H850     H      0.925610000000     0.810660000000     0.962120000000     0.0793328  
H851     H      0.584760000000     0.743010000000     0.596060000000     0.0710653  
H852     H      0.637500000000     0.722570000000     0.574410000000     0.0467095  
H853     H      0.635320000000     0.695490000000     0.517400000000     0.0384954  
H854     H      0.593400000000     0.718290000000     0.986640000000     0.0368112  
H855     H      0.656750000000     0.760220000000     0.576800000000     0.0468417  
H856     H      0.607700000000     0.777680000000     0.604550000000     0.0624815  
H857     H      0.615790000000     0.785270000000     0.044910000000     0.0231037  
H858     H      0.652320000000     0.716310000000     0.984480000000     0.041842   
H859     H      0.611970000000     0.756120000000     0.986360000000     0.0412462  
H860     H      0.571850000000     0.781360000000     0.082890000000     0.0743226  
H861     H      0.767780000000     0.921430000000     0.582000000000     0.0733515  
H862     H      0.737710000000     0.868080000000     0.570360000000     0.0449042  
H863     H      0.703020000000     0.870220000000     0.519090000000     0.0389441  
H864     H      0.725930000000     0.904350000000     0.978950000000     0.0366583  
H865     H      0.772310000000     0.843990000000     0.569210000000     0.0477346  
H866     H      0.796230000000     0.891460000000     0.590950000000     0.0622993  
H867     H      0.797090000000     0.878700000000     0.030240000000     0.0207139  
H868     H      0.714660000000     0.847200000000     0.985190000000     0.0429851  
H869     H      0.760200000000     0.880350000000     0.976610000000     0.035074   
H870     H      0.807010000000     0.922900000000     0.565410000000     0.0799342  
H871     H      0.714230000000     0.583800000000     0.454510000000     0.0776938  
H872     H      0.714790000000     0.627860000000     0.494510000000     0.0457666  
H873     H      0.752530000000     0.622780000000     0.547130000000     0.041297   
H874     H      0.801750000000     0.595880000000     0.533510000000     0.0395022  
H875     H      0.727320000000     0.655200000000     0.964540000000     0.0473783  
H876     H      0.728420000000     0.609080000000     0.923410000000     0.0611859  
H877     H      0.773790000000     0.624420000000     0.953630000000     0.0183817  
H878     H      0.785090000000     0.649720000000     0.548400000000     0.039718   
H879     H      0.809220000000     0.623750000000     0.001890000000     0.0378131  
H880     H      0.749920000000     0.574170000000     0.933020000000     0.0721804  
H881     H      0.742570000000     0.934870000000     0.929620000000     0.0757063  
H882     H      0.726320000000     0.973860000000     0.887340000000     0.0503794  
H883     H      0.750010000000     0.033220000000     0.890660000000     0.0395519  
H884     H      0.803610000000     0.531760000000     0.912250000000     0.0319396  
H885     H      0.741320000000     0.949400000000     0.856010000000     0.0489761  
H886     H      0.758760000000     0.909170000000     0.899740000000     0.0627839  
H887     H      0.793360000000     0.450020000000     0.879510000000     0.0181226  
H888     H      0.777590000000     0.543740000000     0.860020000000     0.0370466  
H889     H      0.815750000000     0.505630000000     0.880610000000     0.0336224  
H890     H      0.783060000000     0.922740000000     0.932000000000     0.0716141  
H891     H      0.673860000000     0.017910000000     0.668220000000     0.0669001  
H892     H      0.697740000000     0.035200000000     0.614190000000     0.0471319  
H893     H      0.750850000000     0.564830000000     0.617950000000     0.0371901  
H894     H      0.777930000000     0.547960000000     0.665060000000     0.0380953  
H895     H      0.697940000000     0.996380000000     0.596810000000     0.0505211  
H896     H      0.667210000000     0.982490000000     0.645400000000     0.0617296  
H897     H      0.726360000000     0.974770000000     0.642450000000     0.0219008  
H898     H      0.785410000000     0.544870000000     0.604850000000     0.0399301  
H899     H      0.783760000000     0.509260000000     0.649400000000     0.03816    
H900     H      0.685510000000     0.979980000000     0.683620000000     0.0766679  
H901     H      0.950600000000     0.721240000000     0.936810000000     0.0704623  
H902     H      0.968120000000     0.761580000000     0.893000000000     0.0451698  
H903     H      0.025350000000     0.790930000000     0.893590000000     0.0422109  
H904     H      0.558440000000     0.758760000000     0.927070000000     0.0356734  
H905     H      0.963790000000     0.730700000000     0.863780000000     0.0438762  
H906     H      0.947030000000     0.692870000000     0.905090000000     0.0585615  
H907     H      0.503580000000     0.698750000000     0.891790000000     0.0167887  
H908     H      0.554520000000     0.773990000000     0.868140000000     0.0415019  
H909     H      0.556110000000     0.726470000000     0.899500000000     0.0353713  
H910     H      0.971360000000     0.683950000000     0.938560000000     0.0776736  
H911     H      0.947510000000     0.724260000000     0.686900000000     0.0771825  
H912     H      0.948330000000     0.766690000000     0.643460000000     0.0456416  
H913     H      0.487770000000     0.813400000000     0.640780000000     0.0406619  
H914     H      0.536210000000     0.798420000000     0.668150000000     0.0358305  
H915     H      0.952660000000     0.735200000000     0.615070000000     0.0447346  
H916     H      0.957380000000     0.693390000000     0.659510000000     0.0615887  
H917     H      0.002980000000     0.720580000000     0.640020000000     0.0241444  
H918     H      0.518890000000     0.811140000000     0.611660000000     0.037824   
H919     H      0.542780000000     0.766830000000     0.640170000000     0.0351836  
H920     H      0.982500000000     0.700690000000     0.692950000000     0.0727169  
H921     H      0.578500000000     0.057580000000     0.811810000000     0.0774185  
H922     H      0.624470000000     0.020890000000     0.809350000000     0.0440823  
H923     H      0.619810000000     0.970860000000     0.769730000000     0.0373239  
H924     H      0.592360000000     0.984660000000     0.719620000000     0.0382733  
H925     H      0.650520000000     0.551660000000     0.797190000000     0.0473599  
H926     H      0.602990000000     0.589720000000     0.799750000000     0.0622406  
H927     H      0.618580000000     0.563460000000     0.750900000000     0.0190548  
H928     H      0.646160000000     0.970470000000     0.736040000000     0.0352643  
H929     H      0.619370000000     0.516480000000     0.712650000000     0.0361375  
H930     H      0.568600000000     0.581070000000     0.776930000000     0.0740051  
H931     H      0.826620000000     0.504390000000     0.820510000000     0.0722336  
H932     H      0.879500000000     0.481000000000     0.798920000000     0.0462813  
H933     H      0.882390000000     0.957830000000     0.739990000000     0.0387321  
H934     H      0.839850000000     0.981350000000     0.711520000000     0.035142   
H935     H      0.899810000000     0.517360000000     0.806330000000     0.0483497  
H936     H      0.853050000000     0.535290000000     0.832350000000     0.0606789  
H937     H      0.862630000000     0.546330000000     0.772430000000     0.0219582  
H938     H      0.899830000000     0.982200000000     0.709980000000     0.0436297  
H939     H      0.857900000000     0.019330000000     0.712100000000     0.0327745  
H940     H      0.818950000000     0.545090000000     0.810330000000     0.0789225  
H941     H      0.568500000000     0.930860000000     0.764110000000     0.0709356  
H942     H      0.548440000000     0.878270000000     0.788610000000     0.0475188  
H943     H      0.489590000000     0.876360000000     0.813020000000     0.039312   
H944     H      0.960910000000     0.917390000000     0.786790000000     0.0363459  
H945     H      0.554320000000     0.857200000000     0.751730000000     0.0477804  
H946     H      0.578850000000     0.905440000000     0.731180000000     0.0615349  
H947     H      0.020860000000     0.894270000000     0.722580000000     0.0222717  
H948     H      0.960740000000     0.857460000000     0.788690000000     0.0419818  
H949     H      0.963260000000     0.897960000000     0.748830000000     0.038524   
H950     H      0.556140000000     0.939850000000     0.723740000000     0.0767925  
H951     H      0.953350000000     0.677760000000     0.807510000000     0.0759983  
H952     H      0.949200000000     0.638570000000     0.761310000000     0.0452615  
H953     H      0.984460000000     0.639220000000     0.709910000000     0.0350008  
H954     H      0.534550000000     0.664140000000     0.723000000000     0.0345945  
H955     H      0.955850000000     0.608080000000     0.790290000000     0.0459257  
H956     H      0.965450000000     0.648390000000     0.835670000000     0.0597733  
H957     H      0.507790000000     0.630530000000     0.802250000000     0.0206464  
H958     H      0.514930000000     0.610000000000     0.707130000000     0.0393404  
H959     H      0.543250000000     0.633910000000     0.751930000000     0.0358598  
H960     H      0.990500000000     0.681380000000     0.828260000000     0.071452   
N1       N      0.407190000000     0.264810000000     0.509600000000    -0.177207   
N2       N      0.343220000000     0.251390000000     0.504410000000    -0.163046   
N3       N      0.092270000000     0.243700000000     0.030890000000    -0.176733   
N4       N      0.157550000000     0.237620000000     0.031010000000    -0.162652   
N5       N      0.257400000000     0.406560000000     0.519390000000    -0.177357   
N6       N      0.243110000000     0.342650000000     0.527500000000    -0.163325   
N7       N      0.270930000000     0.093420000000     0.992620000000    -0.17781    
N8       N      0.253810000000     0.154760000000     0.008400000000    -0.163763   
N9       N      0.285370000000     0.484800000000     0.414310000000    -0.178393   
N10      N      0.256320000000     0.497840000000     0.355710000000    -0.162424   
N11      N      0.237670000000     0.017890000000     0.165100000000    -0.177435   
N12      N      0.241900000000     0.020330000000     0.097920000000    -0.16239    
N13      N      0.514760000000     0.233670000000     0.425930000000    -0.179224   
N14      N      0.507890000000     0.255230000000     0.363600000000    -0.16417    
N15      N      0.005190000000     0.258720000000     0.171990000000    -0.17862    
N16      N      0.985370000000     0.273390000000     0.110860000000    -0.165296   
N17      N      0.089280000000     0.523830000000     0.252200000000    -0.178493   
N18      N      0.150860000000     0.509600000000     0.268490000000    -0.163647   
N19      N      0.337940000000     0.006180000000     0.256140000000    -0.180306   
N20      N      0.403020000000     0.998920000000     0.258510000000    -0.158034   
N21      N      0.005370000000     0.419490000000     0.263220000000    -0.176799   
N22      N      0.008380000000     0.354120000000     0.272350000000    -0.162119   
N23      N      0.507320000000     0.165060000000     0.266250000000    -0.179136   
N24      N      0.484540000000     0.106530000000     0.248000000000    -0.163658   
N25      N      0.407190000000     0.264810000000     0.009600000000    -0.177887   
N26      N      0.343220000000     0.251390000000     0.004410000000    -0.163537   
N27      N      0.092270000000     0.243700000000     0.530890000000    -0.177031   
N28      N      0.157550000000     0.237620000000     0.531010000000    -0.162876   
N29      N      0.257400000000     0.406560000000     0.019390000000    -0.178261   
N30      N      0.243110000000     0.342650000000     0.027500000000    -0.162788   
N31      N      0.270930000000     0.093420000000     0.492620000000    -0.178344   
N32      N      0.253810000000     0.154760000000     0.508400000000    -0.163248   
N33      N      0.285370000000     0.484800000000     0.914310000000    -0.178346   
N34      N      0.256320000000     0.497840000000     0.855710000000    -0.162419   
N35      N      0.237670000000     0.017890000000     0.665100000000    -0.177444   
N36      N      0.241900000000     0.020330000000     0.597920000000    -0.16233    
N37      N      0.514760000000     0.233670000000     0.925930000000    -0.179139   
N38      N      0.507890000000     0.255230000000     0.863600000000    -0.164158   
N39      N      0.005190000000     0.258720000000     0.671990000000    -0.178617   
N40      N      0.985370000000     0.273390000000     0.610860000000    -0.165303   
N41      N      0.089280000000     0.523830000000     0.752200000000    -0.178487   
N42      N      0.150860000000     0.509600000000     0.768490000000    -0.163643   
N43      N      0.337940000000     0.006180000000     0.756140000000    -0.180318   
N44      N      0.403020000000     0.998920000000     0.758510000000    -0.158008   
N45      N      0.005370000000     0.419490000000     0.763220000000    -0.176791   
N46      N      0.008380000000     0.354120000000     0.772350000000    -0.162119   
N47      N      0.507320000000     0.165060000000     0.766250000000    -0.179137   
N48      N      0.484540000000     0.106530000000     0.748000000000    -0.163652   
N49      N      0.407190000000     0.764810000000     0.509600000000    -0.177194   
N50      N      0.343220000000     0.751400000000     0.504410000000    -0.163033   
N51      N      0.092270000000     0.743690000000     0.030890000000    -0.176707   
N52      N      0.157550000000     0.737620000000     0.031010000000    -0.162638   
N53      N      0.257400000000     0.906560000000     0.519390000000    -0.177259   
N54      N      0.243110000000     0.842650000000     0.527500000000    -0.163288   
N55      N      0.270930000000     0.593420000000     0.992620000000    -0.177694   
N56      N      0.253810000000     0.654760000000     0.008400000000    -0.163763   
N57      N      0.285370000000     0.984800000000     0.414310000000    -0.176567   
N58      N      0.256320000000     0.997840000000     0.355710000000    -0.157716   
N59      N      0.237670000000     0.517890000000     0.165100000000    -0.175994   
N60      N      0.241900000000     0.520330000000     0.097920000000    -0.163053   
N61      N      0.514760000000     0.733670000000     0.425930000000    -0.179224   
N62      N      0.507890000000     0.755230000000     0.363600000000    -0.164161   
N63      N      0.005190000000     0.758720000000     0.171990000000    -0.178629   
N64      N      0.985370000000     0.773390000000     0.110860000000    -0.165262   
N65      N      0.089280000000     0.023830000000     0.252200000000    -0.177624   
N66      N      0.150860000000     0.009600000000     0.268490000000    -0.165433   
N67      N      0.337940000000     0.506180000000     0.256140000000    -0.178058   
N68      N      0.403020000000     0.498920000000     0.258510000000    -0.163128   
N69      N      0.005370000000     0.919500000000     0.263220000000    -0.176632   
N70      N      0.008380000000     0.854120000000     0.272350000000    -0.16209    
N71      N      0.507320000000     0.665060000000     0.266250000000    -0.179134   
N72      N      0.484540000000     0.606530000000     0.248000000000    -0.163663   
N73      N      0.407190000000     0.764810000000     0.009600000000    -0.177881   
N74      N      0.343220000000     0.751400000000     0.004410000000    -0.163529   
N75      N      0.092270000000     0.743690000000     0.530890000000    -0.177008   
N76      N      0.157550000000     0.737620000000     0.531010000000    -0.162864   
N77      N      0.257400000000     0.906560000000     0.019390000000    -0.178172   
N78      N      0.243110000000     0.842650000000     0.027500000000    -0.162746   
N79      N      0.270930000000     0.593420000000     0.492620000000    -0.178232   
N80      N      0.253810000000     0.654760000000     0.508400000000    -0.163242   
N81      N      0.285370000000     0.984800000000     0.914310000000    -0.176515   
N82      N      0.256320000000     0.997840000000     0.855710000000    -0.157698   
N83      N      0.237670000000     0.517890000000     0.665100000000    -0.175995   
N84      N      0.241900000000     0.520330000000     0.597920000000    -0.162995   
N85      N      0.514760000000     0.733670000000     0.925930000000    -0.179139   
N86      N      0.507890000000     0.755230000000     0.863600000000    -0.164149   
N87      N      0.005190000000     0.758720000000     0.671990000000    -0.178626   
N88      N      0.985370000000     0.773390000000     0.610860000000    -0.165269   
N89      N      0.089280000000     0.023830000000     0.752200000000    -0.177615   
N90      N      0.150860000000     0.009600000000     0.768490000000    -0.165436   
N91      N      0.337940000000     0.506180000000     0.756140000000    -0.178062   
N92      N      0.403020000000     0.498920000000     0.758510000000    -0.16312    
N93      N      0.005370000000     0.919500000000     0.763220000000    -0.176623   
N94      N      0.008380000000     0.854120000000     0.772350000000    -0.162091   
N95      N      0.507320000000     0.665060000000     0.766250000000    -0.179135   
N96      N      0.484540000000     0.606530000000     0.748000000000    -0.163656   
N97      N      0.907190000000     0.264810000000     0.509600000000    -0.177232   
N98      N      0.843220000000     0.251390000000     0.504410000000    -0.163049   
N99      N      0.592270000000     0.243700000000     0.030890000000    -0.176715   
N100     N      0.657550000000     0.237620000000     0.031010000000    -0.162659   
N101     N      0.757400000000     0.406560000000     0.519390000000    -0.177363   
N102     N      0.743110000000     0.342650000000     0.527500000000    -0.163327   
N103     N      0.770930000000     0.093420000000     0.992620000000    -0.177826   
N104     N      0.753810000000     0.154760000000     0.008400000000    -0.163761   
N105     N      0.785370000000     0.484800000000     0.414310000000    -0.178405   
N106     N      0.756320000000     0.497840000000     0.355710000000    -0.162427   
N107     N      0.737670000000     0.017890000000     0.165100000000    -0.177432   
N108     N      0.741900000000     0.020330000000     0.097920000000    -0.162444   
N109     N      0.014760000000     0.233670000000     0.425930000000    -0.178324   
N110     N      0.007890000000     0.255230000000     0.363600000000    -0.163803   
N111     N      0.505190000000     0.258720000000     0.171990000000    -0.179447   
N112     N      0.485370000000     0.273390000000     0.110860000000    -0.164223   
N113     N      0.589280000000     0.523830000000     0.252200000000    -0.178585   
N114     N      0.650860000000     0.509600000000     0.268490000000    -0.163653   
N115     N      0.837940000000     0.006180000000     0.256140000000    -0.180304   
N116     N      0.903010000000     0.998920000000     0.258510000000    -0.157959   
N117     N      0.505370000000     0.419490000000     0.263220000000    -0.177562   
N118     N      0.508380000000     0.354120000000     0.272350000000    -0.162588   
N119     N      0.007320000000     0.165060000000     0.266250000000    -0.178311   
N120     N      0.984540000000     0.106530000000     0.248000000000    -0.16467    
N121     N      0.907190000000     0.264810000000     0.009600000000    -0.177907   
N122     N      0.843220000000     0.251390000000     0.004410000000    -0.163537   
N123     N      0.592270000000     0.243700000000     0.530890000000    -0.177012   
N124     N      0.657550000000     0.237620000000     0.531010000000    -0.162883   
N125     N      0.757400000000     0.406560000000     0.019390000000    -0.178264   
N126     N      0.743110000000     0.342650000000     0.027500000000    -0.162792   
N127     N      0.770930000000     0.093420000000     0.492620000000    -0.178357   
N128     N      0.753810000000     0.154760000000     0.508400000000    -0.163248   
N129     N      0.785370000000     0.484800000000     0.914310000000    -0.178358   
N130     N      0.756320000000     0.497840000000     0.855710000000    -0.162422   
N131     N      0.737670000000     0.017890000000     0.665100000000    -0.177442   
N132     N      0.741900000000     0.020330000000     0.597920000000    -0.162383   
N133     N      0.014760000000     0.233670000000     0.925930000000    -0.178238   
N134     N      0.007890000000     0.255230000000     0.863600000000    -0.16379    
N135     N      0.505190000000     0.258720000000     0.671990000000    -0.179448   
N136     N      0.485370000000     0.273390000000     0.610860000000    -0.164225   
N137     N      0.589280000000     0.523830000000     0.752200000000    -0.17858    
N138     N      0.650860000000     0.509600000000     0.768490000000    -0.163648   
N139     N      0.837940000000     0.006180000000     0.756140000000    -0.180316   
N140     N      0.903010000000     0.998920000000     0.758510000000    -0.157933   
N141     N      0.505370000000     0.419490000000     0.763220000000    -0.177557   
N142     N      0.508380000000     0.354120000000     0.772350000000    -0.16259    
N143     N      0.007320000000     0.165060000000     0.766250000000    -0.178309   
N144     N      0.984540000000     0.106530000000     0.748000000000    -0.164667   
N145     N      0.907190000000     0.764810000000     0.509600000000    -0.177219   
N146     N      0.843220000000     0.751400000000     0.504410000000    -0.163036   
N147     N      0.592270000000     0.743690000000     0.030890000000    -0.176689   
N148     N      0.657550000000     0.737620000000     0.031010000000    -0.162645   
N149     N      0.757400000000     0.906560000000     0.519390000000    -0.177264   
N150     N      0.743110000000     0.842650000000     0.527500000000    -0.16329    
N151     N      0.770930000000     0.593420000000     0.992620000000    -0.177709   
N152     N      0.753810000000     0.654760000000     0.008400000000    -0.163761   
N153     N      0.785370000000     0.984800000000     0.414310000000    -0.176576   
N154     N      0.756320000000     0.997840000000     0.355710000000    -0.157713   
N155     N      0.737670000000     0.517890000000     0.165100000000    -0.175989   
N156     N      0.741900000000     0.520330000000     0.097920000000    -0.163107   
N157     N      0.014760000000     0.733670000000     0.425930000000    -0.178327   
N158     N      0.007890000000     0.755230000000     0.363600000000    -0.163796   
N159     N      0.505190000000     0.758720000000     0.171990000000    -0.179453   
N160     N      0.485370000000     0.773390000000     0.110860000000    -0.164193   
N161     N      0.589280000000     0.023830000000     0.252200000000    -0.177713   
N162     N      0.650860000000     0.009600000000     0.268490000000    -0.165444   
N163     N      0.837940000000     0.506180000000     0.256140000000    -0.178056   
N164     N      0.903010000000     0.498920000000     0.258510000000    -0.163051   
N165     N      0.505370000000     0.919500000000     0.263220000000    -0.177389   
N166     N      0.508380000000     0.854120000000     0.272350000000    -0.162557   
N167     N      0.007320000000     0.665060000000     0.266250000000    -0.17831    
N168     N      0.984540000000     0.606530000000     0.248000000000    -0.164672   
N169     N      0.907190000000     0.764810000000     0.009600000000    -0.177902   
N170     N      0.843220000000     0.751400000000     0.004410000000    -0.16353    
N171     N      0.592270000000     0.743690000000     0.530890000000    -0.17699    
N172     N      0.657550000000     0.737620000000     0.531010000000    -0.162871   
N173     N      0.757400000000     0.906560000000     0.019390000000    -0.178175   
N174     N      0.743110000000     0.842650000000     0.027500000000    -0.16275    
N175     N      0.770930000000     0.593420000000     0.492620000000    -0.178246   
N176     N      0.753810000000     0.654760000000     0.508400000000    -0.163242   
N177     N      0.785370000000     0.984800000000     0.914310000000    -0.176525   
N178     N      0.756320000000     0.997840000000     0.855710000000    -0.157695   
N179     N      0.737670000000     0.517890000000     0.665100000000    -0.17599    
N180     N      0.741900000000     0.520330000000     0.597920000000    -0.163049   
N181     N      0.014760000000     0.733670000000     0.925930000000    -0.17824    
N182     N      0.007890000000     0.755230000000     0.863600000000    -0.163783   
N183     N      0.505190000000     0.758720000000     0.671990000000    -0.179454   
N184     N      0.485370000000     0.773390000000     0.610860000000    -0.164195   
N185     N      0.589280000000     0.023830000000     0.752200000000    -0.177704   
N186     N      0.650860000000     0.009600000000     0.768490000000    -0.165446   
N187     N      0.837940000000     0.506180000000     0.756140000000    -0.17806    
N188     N      0.903010000000     0.498920000000     0.758510000000    -0.163043   
N189     N      0.505370000000     0.919500000000     0.763220000000    -0.177382   
N190     N      0.508380000000     0.854120000000     0.772350000000    -0.162558   
N191     N      0.007320000000     0.665060000000     0.766250000000    -0.178309   
N192     N      0.984540000000     0.606530000000     0.748000000000    -0.164669   
O1       O      0.491380000000     0.058130000000     0.224770000000    -0.395087   
O2       O      0.501350000000     0.463430000000     0.232400000000    -0.401652   
O3       O      0.448600000000     0.504550000000     0.229890000000    -0.396191   
O4       O      0.042750000000     0.015020000000     0.227350000000    -0.402704   
O5       O      0.043120000000     0.022520000000     0.280130000000    -0.401618   
O6       O      0.449610000000     0.508990000000     0.282990000000    -0.403038   
O7       O      0.001910000000     0.468140000000     0.285650000000    -0.397459   
O8       O      0.988900000000     0.062010000000     0.277920000000    -0.402975   
O9       O      0.481190000000     0.211780000000     0.268270000000    -0.405513   
O10      O      0.481590000000     0.307230000000     0.270230000000    -0.39617    
O11      O      0.480400000000     0.259390000000     0.220270000000    -0.406494   
O12      O      0.481720000000     0.257680000000     0.316390000000    -0.406947   
O13      O      0.033870000000     0.258340000000     0.315620000000    -0.39766    
O14      O      0.032490000000     0.262010000000     0.218600000000    -0.401404   
O15      O      0.033680000000     0.307030000000     0.268430000000    -0.401636   
O16      O      0.033230000000     0.211970000000     0.264270000000    -0.399728   
O17      O      0.290870000000     0.481270000000     0.252420000000    -0.397669   
O18      O      0.196540000000     0.482850000000     0.261270000000    -0.401882   
O19      O      0.238580000000     0.486850000000     0.209540000000    -0.401311   
O20      O      0.247940000000     0.476900000000     0.305690000000    -0.395563   
O21      O      0.250510000000     0.028940000000     0.311420000000    -0.399112   
O22      O      0.241820000000     0.038970000000     0.215270000000    -0.394569   
O23      O      0.198200000000     0.034760000000     0.268800000000    -0.397631   
O24      O      0.292290000000     0.033270000000     0.259910000000    -0.404656   
O25      O      0.277970000000     0.009120000000     0.059220000000    -0.401677   
O26      O      0.299740000000     0.991670000000     0.466390000000    -0.396699   
O27      O      0.292320000000     0.046190000000     0.505760000000    -0.406268   
O28      O      0.285300000000     0.452650000000     0.021440000000    -0.402758   
O29      O      0.235200000000     0.453780000000     0.006870000000    -0.402592   
O30      O      0.242170000000     0.047710000000     0.491410000000    -0.399317   
O31      O      0.249050000000     0.491810000000     0.453450000000    -0.402333   
O32      O      0.227330000000     0.508650000000     0.046460000000    -0.396224   
O33      O      0.990340000000     0.238430000000     0.069960000000    -0.404566   
O34      O      0.000940000000     0.218880000000     0.476320000000    -0.405347   
O35      O      0.043100000000     0.223310000000     0.528980000000    -0.398101   
O36      O      0.449910000000     0.234140000000     0.017820000000    -0.405305   
O37      O      0.457120000000     0.284230000000     0.003890000000    -0.397187   
O38      O      0.049970000000     0.275080000000     0.522950000000    -0.400517   
O39      O      0.512760000000     0.269140000000     0.466860000000    -0.40043    
O40      O      0.496490000000     0.289680000000     0.060070000000    -0.398207   
O41      O      0.255660000000     0.199120000000     0.039160000000    -0.398825   
O42      O      0.253130000000     0.293910000000     0.048390000000    -0.398631   
O43      O      0.206970000000     0.244750000000     0.050900000000    -0.396865   
O44      O      0.300500000000     0.247610000000     0.036780000000    -0.401107   
O45      O      0.293150000000     0.256220000000     0.484740000000    -0.393371   
O46      O      0.199570000000     0.245060000000     0.498110000000    -0.397794   
O47      O      0.241120000000     0.298150000000     0.496710000000    -0.398376   
O48      O      0.249400000000     0.203790000000     0.486390000000    -0.398361   
O49      O      0.491380000000     0.058130000000     0.724770000000    -0.395062   
O50      O      0.501350000000     0.463430000000     0.732400000000    -0.401535   
O51      O      0.448600000000     0.504550000000     0.729890000000    -0.396175   
O52      O      0.042750000000     0.015020000000     0.727350000000    -0.402681   
O53      O      0.043120000000     0.022520000000     0.780130000000    -0.401599   
O54      O      0.449610000000     0.508990000000     0.782990000000    -0.403015   
O55      O      0.001910000000     0.468140000000     0.785650000000    -0.39751    
O56      O      0.988900000000     0.062010000000     0.777920000000    -0.40296    
O57      O      0.481190000000     0.211780000000     0.768270000000    -0.405515   
O58      O      0.481590000000     0.307230000000     0.770230000000    -0.396165   
O59      O      0.480400000000     0.259390000000     0.720270000000    -0.406496   
O60      O      0.481720000000     0.257680000000     0.816390000000    -0.406937   
O61      O      0.033870000000     0.258340000000     0.815620000000    -0.397651   
O62      O      0.032490000000     0.262010000000     0.718600000000    -0.401405   
O63      O      0.033680000000     0.307030000000     0.768430000000    -0.401632   
O64      O      0.033230000000     0.211970000000     0.764270000000    -0.399727   
O65      O      0.290870000000     0.481270000000     0.752420000000    -0.397682   
O66      O      0.196540000000     0.482850000000     0.761270000000    -0.401888   
O67      O      0.238580000000     0.486850000000     0.709550000000    -0.401353   
O68      O      0.247940000000     0.476900000000     0.805690000000    -0.395577   
O69      O      0.250510000000     0.028940000000     0.811420000000    -0.399101   
O70      O      0.241820000000     0.038970000000     0.715270000000    -0.394539   
O71      O      0.198200000000     0.034760000000     0.768800000000    -0.397622   
O72      O      0.292290000000     0.033270000000     0.759910000000    -0.404651   
O73      O      0.277970000000     0.009120000000     0.559220000000    -0.401845   
O74      O      0.299740000000     0.991670000000     0.966390000000    -0.395637   
O75      O      0.292320000000     0.046190000000     0.005760000000    -0.40752    
O76      O      0.285300000000     0.452650000000     0.521440000000    -0.402615   
O77      O      0.235200000000     0.453780000000     0.506870000000    -0.401195   
O78      O      0.242170000000     0.047710000000     0.991410000000    -0.399753   
O79      O      0.249050000000     0.491810000000     0.953450000000    -0.402524   
O80      O      0.227330000000     0.508650000000     0.546460000000    -0.395174   
O81      O      0.990340000000     0.238430000000     0.569960000000    -0.404752   
O82      O      0.000940000000     0.218880000000     0.976320000000    -0.404296   
O83      O      0.043100000000     0.223310000000     0.028980000000    -0.398251   
O84      O      0.449910000000     0.234140000000     0.517820000000    -0.405174   
O85      O      0.457120000000     0.284230000000     0.503890000000    -0.396784   
O86      O      0.049970000000     0.275080000000     0.022950000000    -0.400642   
O87      O      0.512760000000     0.269140000000     0.966860000000    -0.399409   
O88      O      0.496490000000     0.289680000000     0.560070000000    -0.398348   
O89      O      0.255660000000     0.199120000000     0.539160000000    -0.399215   
O90      O      0.253130000000     0.293910000000     0.548390000000    -0.399076   
O91      O      0.206970000000     0.244750000000     0.550900000000    -0.39729    
O92      O      0.300500000000     0.247610000000     0.536790000000    -0.401367   
O93      O      0.293150000000     0.256220000000     0.984740000000    -0.392118   
O94      O      0.199570000000     0.245060000000     0.998110000000    -0.396416   
O95      O      0.241120000000     0.298150000000     0.996710000000    -0.396959   
O96      O      0.249400000000     0.203790000000     0.986390000000    -0.397067   
O97      O      0.491380000000     0.558130000000     0.224770000000    -0.395484   
O98      O      0.501350000000     0.963430000000     0.232400000000    -0.398854   
O99      O      0.448600000000     0.004550000000     0.229890000000    -0.396339   
O100     O      0.042750000000     0.515020000000     0.227350000000    -0.402163   
O101     O      0.043120000000     0.522520000000     0.280130000000    -0.401469   
O102     O      0.449610000000     0.008990000000     0.282990000000    -0.402675   
O103     O      0.001910000000     0.968140000000     0.285650000000    -0.39447    
O104     O      0.988900000000     0.562000000000     0.277920000000    -0.403519   
O105     O      0.481190000000     0.711790000000     0.268270000000    -0.405535   
O106     O      0.481590000000     0.807230000000     0.270230000000    -0.396174   
O107     O      0.480400000000     0.759390000000     0.220270000000    -0.406506   
O108     O      0.481720000000     0.757670000000     0.316390000000    -0.406949   
O109     O      0.033870000000     0.758340000000     0.315620000000    -0.397649   
O110     O      0.032490000000     0.762000000000     0.218600000000    -0.401415   
O111     O      0.033680000000     0.807030000000     0.268430000000    -0.401624   
O112     O      0.033230000000     0.711970000000     0.264270000000    -0.399688   
O113     O      0.290870000000     0.981270000000     0.252420000000    -0.394071   
O114     O      0.196540000000     0.982850000000     0.261270000000    -0.398434   
O115     O      0.238580000000     0.986850000000     0.209540000000    -0.397815   
O116     O      0.247940000000     0.976900000000     0.305690000000    -0.391255   
O117     O      0.250510000000     0.528940000000     0.311420000000    -0.400942   
O118     O      0.241820000000     0.538970000000     0.215270000000    -0.39567    
O119     O      0.198200000000     0.534760000000     0.268800000000    -0.398683   
O120     O      0.292290000000     0.533270000000     0.259910000000    -0.405788   
O121     O      0.277970000000     0.509120000000     0.059220000000    -0.398583   
O122     O      0.299740000000     0.491670000000     0.466390000000    -0.397009   
O123     O      0.292320000000     0.546190000000     0.505760000000    -0.403274   
O124     O      0.285300000000     0.952650000000     0.021440000000    -0.403101   
O125     O      0.235200000000     0.953780000000     0.006870000000    -0.399735   
O126     O      0.242170000000     0.547710000000     0.491410000000    -0.399756   
O127     O      0.249050000000     0.991810000000     0.453450000000    -0.398943   
O128     O      0.227330000000     0.008650000000     0.046460000000    -0.39634    
O129     O      0.990340000000     0.738430000000     0.069960000000    -0.404541   
O130     O      0.000940000000     0.718880000000     0.476320000000    -0.405378   
O131     O      0.043100000000     0.723310000000     0.528980000000    -0.39804    
O132     O      0.449910000000     0.734140000000     0.017820000000    -0.405275   
O133     O      0.457120000000     0.784230000000     0.003890000000    -0.397126   
O134     O      0.049970000000     0.775080000000     0.522950000000    -0.400459   
O135     O      0.512760000000     0.769140000000     0.466860000000    -0.400277   
O136     O      0.496490000000     0.789680000000     0.060070000000    -0.398115   
O137     O      0.255660000000     0.699120000000     0.039160000000    -0.398834   
O138     O      0.253130000000     0.793900000000     0.048390000000    -0.398627   
O139     O      0.206970000000     0.744750000000     0.050900000000    -0.396866   
O140     O      0.300500000000     0.747610000000     0.036780000000    -0.40111    
O141     O      0.293150000000     0.756220000000     0.484740000000    -0.393368   
O142     O      0.199570000000     0.745060000000     0.498110000000    -0.397783   
O143     O      0.241120000000     0.798150000000     0.496710000000    -0.398325   
O144     O      0.249400000000     0.703790000000     0.486390000000    -0.398362   
O145     O      0.491380000000     0.558130000000     0.724770000000    -0.395461   
O146     O      0.501350000000     0.963430000000     0.732400000000    -0.398726   
O147     O      0.448600000000     0.004550000000     0.729890000000    -0.396324   
O148     O      0.042750000000     0.515020000000     0.727350000000    -0.402137   
O149     O      0.043120000000     0.522520000000     0.780130000000    -0.40145    
O150     O      0.449610000000     0.008990000000     0.782990000000    -0.402651   
O151     O      0.001910000000     0.968140000000     0.785650000000    -0.394511   
O152     O      0.988900000000     0.562000000000     0.777920000000    -0.403507   
O153     O      0.481190000000     0.711790000000     0.768270000000    -0.405537   
O154     O      0.481590000000     0.807230000000     0.770230000000    -0.396169   
O155     O      0.480400000000     0.759390000000     0.720270000000    -0.406507   
O156     O      0.481720000000     0.757670000000     0.816390000000    -0.40694    
O157     O      0.033870000000     0.758340000000     0.815620000000    -0.39764    
O158     O      0.032490000000     0.762000000000     0.718600000000    -0.401417   
O159     O      0.033680000000     0.807030000000     0.768430000000    -0.401619   
O160     O      0.033230000000     0.711970000000     0.764270000000    -0.399687   
O161     O      0.290870000000     0.981270000000     0.752420000000    -0.394069   
O162     O      0.196540000000     0.982850000000     0.761270000000    -0.398428   
O163     O      0.238580000000     0.986850000000     0.709550000000    -0.397843   
O164     O      0.247940000000     0.976900000000     0.805690000000    -0.391255   
O165     O      0.250510000000     0.528940000000     0.811420000000    -0.400938   
O166     O      0.241820000000     0.538970000000     0.715270000000    -0.395644   
O167     O      0.198200000000     0.534760000000     0.768800000000    -0.398678   
O168     O      0.292290000000     0.533270000000     0.759910000000    -0.405788   
O169     O      0.277970000000     0.509120000000     0.559220000000    -0.398725   
O170     O      0.299740000000     0.491670000000     0.966390000000    -0.395965   
O171     O      0.292320000000     0.546190000000     0.005760000000    -0.404567   
O172     O      0.285300000000     0.952650000000     0.521440000000    -0.40296    
O173     O      0.235200000000     0.953780000000     0.506870000000    -0.398328   
O174     O      0.242170000000     0.547710000000     0.991410000000    -0.400196   
O175     O      0.249050000000     0.991810000000     0.953450000000    -0.399125   
O176     O      0.227330000000     0.008650000000     0.546460000000    -0.395311   
O177     O      0.990340000000     0.738430000000     0.569960000000    -0.404729   
O178     O      0.000940000000     0.718880000000     0.976320000000    -0.404317   
O179     O      0.043100000000     0.723310000000     0.028980000000    -0.398193   
O180     O      0.449910000000     0.734140000000     0.517820000000    -0.405142   
O181     O      0.457120000000     0.784230000000     0.503890000000    -0.396718   
O182     O      0.049970000000     0.775080000000     0.022950000000    -0.400586   
O183     O      0.512760000000     0.769140000000     0.966860000000    -0.399246   
O184     O      0.496490000000     0.789680000000     0.560070000000    -0.398257   
O185     O      0.255660000000     0.699120000000     0.539160000000    -0.399228   
O186     O      0.253130000000     0.793900000000     0.548390000000    -0.399077   
O187     O      0.206970000000     0.744750000000     0.550900000000    -0.397294   
O188     O      0.300500000000     0.747610000000     0.536790000000    -0.401374   
O189     O      0.293150000000     0.756220000000     0.984740000000    -0.392102   
O190     O      0.199570000000     0.745060000000     0.998110000000    -0.396391   
O191     O      0.241120000000     0.798150000000     0.996710000000    -0.396894   
O192     O      0.249400000000     0.703790000000     0.986390000000    -0.397055   
O193     O      0.991380000000     0.058130000000     0.224770000000    -0.395236   
O194     O      0.001350000000     0.463430000000     0.232400000000    -0.400399   
O195     O      0.948600000000     0.504550000000     0.229890000000    -0.396044   
O196     O      0.542750000000     0.015020000000     0.227350000000    -0.403761   
O197     O      0.543120000000     0.022520000000     0.280130000000    -0.402677   
O198     O      0.949600000000     0.508990000000     0.282990000000    -0.402827   
O199     O      0.501910000000     0.468140000000     0.285650000000    -0.398797   
O200     O      0.488890000000     0.062010000000     0.277920000000    -0.402931   
O201     O      0.981190000000     0.211780000000     0.268270000000    -0.406706   
O202     O      0.981590000000     0.307230000000     0.270230000000    -0.397511   
O203     O      0.980400000000     0.259390000000     0.220270000000    -0.407649   
O204     O      0.981720000000     0.257680000000     0.316390000000    -0.408239   
O205     O      0.533870000000     0.258340000000     0.315620000000    -0.397267   
O206     O      0.532490000000     0.262010000000     0.218600000000    -0.400906   
O207     O      0.533680000000     0.307030000000     0.268430000000    -0.401213   
O208     O      0.533230000000     0.211970000000     0.264270000000    -0.399357   
O209     O      0.790870000000     0.481270000000     0.252420000000    -0.397671   
O210     O      0.696540000000     0.482850000000     0.261270000000    -0.401885   
O211     O      0.738580000000     0.486850000000     0.209540000000    -0.40131    
O212     O      0.747940000000     0.476900000000     0.305690000000    -0.395565   
O213     O      0.750510000000     0.028940000000     0.311420000000    -0.39911    
O214     O      0.741820000000     0.038970000000     0.215270000000    -0.394567   
O215     O      0.698200000000     0.034760000000     0.268800000000    -0.397632   
O216     O      0.792290000000     0.033270000000     0.259910000000    -0.404651   
O217     O      0.777970000000     0.009120000000     0.059220000000    -0.401739   
O218     O      0.799740000000     0.991670000000     0.466390000000    -0.396736   
O219     O      0.792320000000     0.046190000000     0.505760000000    -0.406292   
O220     O      0.785300000000     0.452650000000     0.021440000000    -0.402775   
O221     O      0.735200000000     0.453780000000     0.006870000000    -0.40261    
O222     O      0.742170000000     0.047710000000     0.491410000000    -0.399341   
O223     O      0.749050000000     0.491810000000     0.453450000000    -0.402352   
O224     O      0.727340000000     0.508650000000     0.046460000000    -0.396398   
O225     O      0.490340000000     0.238430000000     0.069960000000    -0.404504   
O226     O      0.500930000000     0.218880000000     0.476320000000    -0.40678    
O227     O      0.543110000000     0.223310000000     0.528980000000    -0.399239   
O228     O      0.949910000000     0.234140000000     0.017820000000    -0.405099   
O229     O      0.957120000000     0.284230000000     0.003890000000    -0.398136   
O230     O      0.549970000000     0.275080000000     0.522950000000    -0.400347   
O231     O      0.012760000000     0.269140000000     0.466860000000    -0.400468   
O232     O      0.996490000000     0.289680000000     0.060070000000    -0.399558   
O233     O      0.755660000000     0.199120000000     0.039160000000    -0.398827   
O234     O      0.753130000000     0.293910000000     0.048390000000    -0.398633   
O235     O      0.706970000000     0.244750000000     0.050900000000    -0.396869   
O236     O      0.800500000000     0.247610000000     0.036780000000    -0.401109   
O237     O      0.793150000000     0.256220000000     0.484740000000    -0.393369   
O238     O      0.699570000000     0.245060000000     0.498110000000    -0.397798   
O239     O      0.741120000000     0.298150000000     0.496710000000    -0.398377   
O240     O      0.749400000000     0.203790000000     0.486390000000    -0.398359   
O241     O      0.991380000000     0.058130000000     0.724770000000    -0.395212   
O242     O      0.001350000000     0.463430000000     0.732400000000    -0.400278   
O243     O      0.948600000000     0.504550000000     0.729890000000    -0.396028   
O244     O      0.542750000000     0.015020000000     0.727350000000    -0.403742   
O245     O      0.543120000000     0.022520000000     0.780130000000    -0.402661   
O246     O      0.949600000000     0.508990000000     0.782990000000    -0.402804   
O247     O      0.501910000000     0.468140000000     0.785650000000    -0.398852   
O248     O      0.488890000000     0.062010000000     0.777920000000    -0.402916   
O249     O      0.981190000000     0.211780000000     0.768270000000    -0.406712   
O250     O      0.981590000000     0.307230000000     0.770230000000    -0.397511   
O251     O      0.980400000000     0.259390000000     0.720270000000    -0.407655   
O252     O      0.981720000000     0.257680000000     0.816390000000    -0.408233   
O253     O      0.533870000000     0.258340000000     0.815620000000    -0.397257   
O254     O      0.532490000000     0.262010000000     0.718600000000    -0.400906   
O255     O      0.533680000000     0.307030000000     0.768430000000    -0.401208   
O256     O      0.533230000000     0.211970000000     0.764270000000    -0.399355   
O257     O      0.790870000000     0.481270000000     0.752420000000    -0.397684   
O258     O      0.696540000000     0.482850000000     0.761270000000    -0.401891   
O259     O      0.738580000000     0.486850000000     0.709550000000    -0.401352   
O260     O      0.747940000000     0.476900000000     0.805690000000    -0.395579   
O261     O      0.750510000000     0.028940000000     0.811420000000    -0.399099   
O262     O      0.741820000000     0.038970000000     0.715270000000    -0.394537   
O263     O      0.698200000000     0.034760000000     0.768800000000    -0.397623   
O264     O      0.792290000000     0.033270000000     0.759910000000    -0.404646   
O265     O      0.777970000000     0.009120000000     0.559220000000    -0.401907   
O266     O      0.799740000000     0.991670000000     0.966390000000    -0.395679   
O267     O      0.792320000000     0.046190000000     0.005760000000    -0.407538   
O268     O      0.785300000000     0.452650000000     0.521440000000    -0.402633   
O269     O      0.735200000000     0.453780000000     0.506870000000    -0.401218   
O270     O      0.742170000000     0.047710000000     0.991410000000    -0.399775   
O271     O      0.749050000000     0.491810000000     0.953450000000    -0.402542   
O272     O      0.727340000000     0.508650000000     0.546460000000    -0.395351   
O273     O      0.490340000000     0.238430000000     0.569960000000    -0.40469    
O274     O      0.500930000000     0.218880000000     0.976320000000    -0.405722   
O275     O      0.543110000000     0.223310000000     0.028980000000    -0.399382   
O276     O      0.949910000000     0.234140000000     0.517820000000    -0.404968   
O277     O      0.957120000000     0.284230000000     0.503890000000    -0.397743   
O278     O      0.549970000000     0.275080000000     0.022950000000    -0.400473   
O279     O      0.012760000000     0.269140000000     0.966860000000    -0.399444   
O280     O      0.996490000000     0.289680000000     0.560070000000    -0.399709   
O281     O      0.755660000000     0.199120000000     0.539160000000    -0.399216   
O282     O      0.753130000000     0.293910000000     0.548390000000    -0.399076   
O283     O      0.706970000000     0.244750000000     0.550900000000    -0.397292   
O284     O      0.800500000000     0.247610000000     0.536790000000    -0.401367   
O285     O      0.793150000000     0.256220000000     0.984740000000    -0.392122   
O286     O      0.699570000000     0.245060000000     0.998110000000    -0.396423   
O287     O      0.741120000000     0.298150000000     0.996710000000    -0.396964   
O288     O      0.749400000000     0.203790000000     0.986390000000    -0.397071   
O289     O      0.991380000000     0.558130000000     0.224770000000    -0.39563    
O290     O      0.001350000000     0.963430000000     0.232400000000    -0.397618   
O291     O      0.948600000000     0.004550000000     0.229890000000    -0.396193   
O292     O      0.542750000000     0.515020000000     0.227350000000    -0.403218   
O293     O      0.543120000000     0.522520000000     0.280130000000    -0.402528   
O294     O      0.949600000000     0.008990000000     0.282990000000    -0.402465   
O295     O      0.501910000000     0.968140000000     0.285650000000    -0.39579    
O296     O      0.488890000000     0.562000000000     0.277920000000    -0.403478   
O297     O      0.981190000000     0.711790000000     0.268270000000    -0.406725   
O298     O      0.981590000000     0.807230000000     0.270230000000    -0.397508   
O299     O      0.980400000000     0.759390000000     0.220270000000    -0.407655   
O300     O      0.981720000000     0.757670000000     0.316390000000    -0.408237   
O301     O      0.533870000000     0.758340000000     0.315620000000    -0.397258   
O302     O      0.532490000000     0.762000000000     0.218600000000    -0.400919   
O303     O      0.533680000000     0.807030000000     0.268430000000    -0.401203   
O304     O      0.533230000000     0.711970000000     0.264270000000    -0.399319   
O305     O      0.790870000000     0.981270000000     0.252420000000    -0.39407    
O306     O      0.696540000000     0.982850000000     0.261270000000    -0.39843    
O307     O      0.738580000000     0.986850000000     0.209540000000    -0.397809   
O308     O      0.747940000000     0.976900000000     0.305690000000    -0.391251   
O309     O      0.750510000000     0.528940000000     0.311420000000    -0.400943   
O310     O      0.741820000000     0.538970000000     0.215270000000    -0.39567    
O311     O      0.698200000000     0.534760000000     0.268800000000    -0.398687   
O312     O      0.792290000000     0.533270000000     0.259910000000    -0.405784   
O313     O      0.777970000000     0.509120000000     0.059220000000    -0.398643   
O314     O      0.799740000000     0.491670000000     0.466390000000    -0.397046   
O315     O      0.792320000000     0.546190000000     0.505760000000    -0.403295   
O316     O      0.785300000000     0.952650000000     0.021440000000    -0.403119   
O317     O      0.735200000000     0.953780000000     0.006870000000    -0.399749   
O318     O      0.742170000000     0.547710000000     0.491410000000    -0.399781   
O319     O      0.749050000000     0.991810000000     0.453450000000    -0.398957   
O320     O      0.727340000000     0.008650000000     0.046460000000    -0.396514   
O321     O      0.490340000000     0.738430000000     0.069960000000    -0.404479   
O322     O      0.500930000000     0.718880000000     0.476320000000    -0.406806   
O323     O      0.543110000000     0.723310000000     0.528980000000    -0.399176   
O324     O      0.949910000000     0.734140000000     0.017820000000    -0.40507    
O325     O      0.957120000000     0.784230000000     0.003890000000    -0.39807    
O326     O      0.549970000000     0.775080000000     0.522950000000    -0.40029    
O327     O      0.012760000000     0.769140000000     0.466860000000    -0.400315   
O328     O      0.996490000000     0.789680000000     0.060070000000    -0.399461   
O329     O      0.755660000000     0.699120000000     0.039160000000    -0.398836   
O330     O      0.753130000000     0.793900000000     0.048390000000    -0.398629   
O331     O      0.706970000000     0.744750000000     0.050900000000    -0.39687    
O332     O      0.800500000000     0.747610000000     0.036780000000    -0.401112   
O333     O      0.793150000000     0.756220000000     0.484740000000    -0.393367   
O334     O      0.699570000000     0.745060000000     0.498110000000    -0.397786   
O335     O      0.741120000000     0.798150000000     0.496710000000    -0.398326   
O336     O      0.749400000000     0.703790000000     0.486390000000    -0.398361   
O337     O      0.991380000000     0.558130000000     0.724770000000    -0.395608   
O338     O      0.001350000000     0.963430000000     0.732400000000    -0.397485   
O339     O      0.948600000000     0.004550000000     0.729890000000    -0.396177   
O340     O      0.542750000000     0.515020000000     0.727350000000    -0.403197   
O341     O      0.543120000000     0.522520000000     0.780130000000    -0.402512   
O342     O      0.949600000000     0.008990000000     0.782990000000    -0.40244    
O343     O      0.501910000000     0.968140000000     0.785650000000    -0.395834   
O344     O      0.488890000000     0.562000000000     0.777920000000    -0.403465   
O345     O      0.981190000000     0.711790000000     0.768270000000    -0.40673    
O346     O      0.981590000000     0.807230000000     0.770230000000    -0.397507   
O347     O      0.980400000000     0.759390000000     0.720270000000    -0.407662   
O348     O      0.981720000000     0.757670000000     0.816390000000    -0.408231   
O349     O      0.533870000000     0.758340000000     0.815620000000    -0.397248   
O350     O      0.532490000000     0.762000000000     0.718600000000    -0.400919   
O351     O      0.533680000000     0.807030000000     0.768430000000    -0.401197   
O352     O      0.533230000000     0.711970000000     0.764270000000    -0.399317   
O353     O      0.790870000000     0.981270000000     0.752420000000    -0.394069   
O354     O      0.696540000000     0.982850000000     0.761270000000    -0.398423   
O355     O      0.738580000000     0.986850000000     0.709550000000    -0.397836   
O356     O      0.747940000000     0.976900000000     0.805690000000    -0.391252   
O357     O      0.750510000000     0.528940000000     0.811420000000    -0.400938   
O358     O      0.741820000000     0.538970000000     0.715270000000    -0.395644   
O359     O      0.698200000000     0.534760000000     0.768800000000    -0.398681   
O360     O      0.792290000000     0.533270000000     0.759910000000    -0.405784   
O361     O      0.777970000000     0.509120000000     0.559220000000    -0.398784   
O362     O      0.799740000000     0.491670000000     0.966390000000    -0.396007   
O363     O      0.792320000000     0.546190000000     0.005760000000    -0.404583   
O364     O      0.785300000000     0.952650000000     0.521440000000    -0.402979   
O365     O      0.735200000000     0.953780000000     0.506870000000    -0.398346   
O366     O      0.742170000000     0.547710000000     0.991410000000    -0.400219   
O367     O      0.749050000000     0.991810000000     0.953450000000    -0.399138   
O368     O      0.727340000000     0.008650000000     0.546460000000    -0.395488   
O369     O      0.490340000000     0.738430000000     0.569960000000    -0.404667   
O370     O      0.500930000000     0.718880000000     0.976320000000    -0.405737   
O371     O      0.543110000000     0.723310000000     0.028980000000    -0.39932    
O372     O      0.949910000000     0.734140000000     0.517820000000    -0.404937   
O373     O      0.957120000000     0.784230000000     0.503890000000    -0.397672   
O374     O      0.549970000000     0.775080000000     0.022950000000    -0.400417   
O375     O      0.012760000000     0.769140000000     0.966860000000    -0.399281   
O376     O      0.996490000000     0.789680000000     0.560070000000    -0.399613   
O377     O      0.755660000000     0.699120000000     0.539160000000    -0.399229   
O378     O      0.753130000000     0.793900000000     0.548390000000    -0.399076   
O379     O      0.706970000000     0.744750000000     0.550900000000    -0.397297   
O380     O      0.800500000000     0.747610000000     0.536790000000    -0.401374   
O381     O      0.793150000000     0.756220000000     0.984740000000    -0.392105   
O382     O      0.699570000000     0.745060000000     0.998110000000    -0.396398   
O383     O      0.741120000000     0.798150000000     0.996710000000    -0.396899   
O384     O      0.749400000000     0.703790000000     0.986390000000    -0.397059   


