data_structure

_audit_creation_method RASPA-1.0
_audit_creation_date 2023-6-5
_audit_author_name 'Poobodin Mano'

_cell_length_a    35.4258
_cell_length_b    35.2236
_cell_length_c    20.4772
_cell_angle_alpha 89.9827
_cell_angle_beta  90.0174
_cell_angle_gamma 119.975
_cell_volume      22134.2

_symmetry_cell_setting          triclinic
_symmetry_space_group_name_Hall 'P 1'
_symmetry_space_group_name_H-M  'P 1'
_symmetry_Int_Tables_number     1

_symmetry_equiv_pos_as_xyz 'x,y,z'

loop_
_atom_site_label
_atom_site_type_symbol
_atom_site_fract_x
_atom_site_fract_y
_atom_site_fract_z
_atom_site_charge
C1       C      0.910480000000     0.710820000000     0.719680000000     0.399265   
C2       C      0.754400000000     0.649220000000     0.609220000000     0.4006     
C3       C      0.801570000000     0.685970000000     0.779660000000     0.40248    
C4       C      0.864060000000     0.676090000000     0.546840000000     0.40063    
C5       C      0.078460000000     0.781470000000     0.818270000000     0.40122    
C6       C      0.244010000000     0.868330000000     0.897240000000     0.399236   
C7       C      0.185370000000     0.849120000000     0.735460000000     0.39948    
C8       C      0.136470000000     0.799090000000     0.981410000000     0.402456   
C9       C      0.404000000000     0.945470000000     0.011140000000     0.401266   
C10      C      0.574480000000     0.017530000000     0.058140000000     0.398423   
C11      C      0.504270000000     0.983060000000     0.905290000000     0.398678   
C12      C      0.475140000000     0.980600000000     0.161120000000     0.399565   
C13      C      0.091450000000     0.300300000000     0.264720000000     0.399527   
C14      C      0.262320000000     0.387710000000     0.312090000000     0.402844   
C15      C      0.193460000000     0.343250000000     0.164230000000     0.401347   
C16      C      0.159570000000     0.343940000000     0.417640000000     0.398744   
C17      C      0.753060000000     0.102980000000     0.104570000000     0.400224   
C18      C      0.920090000000     0.203940000000     0.170860000000     0.400685   
C19      C      0.857110000000     0.170580000000     0.010800000000     0.399186   
C20      C      0.817420000000     0.137360000000     0.263250000000     0.398627   
C21      C      0.589820000000     0.568840000000     0.490960000000     0.399621   
C22      C      0.423150000000     0.476110000000     0.419170000000     0.400011   
C23      C      0.481710000000     0.503110000000     0.578820000000     0.402688   
C24      C      0.529110000000     0.539850000000     0.329940000000     0.401508   
C25      C      0.197130000000     0.294650000000     0.738040000000     0.400294   
C26      C      0.124180000000     0.383210000000     0.834070000000     0.402323   
C27      C      0.129620000000     0.339990000000     0.667730000000     0.403684   
C28      C      0.192350000000     0.338250000000     0.903360000000     0.401486   
C29      C      0.274790000000     0.194840000000     0.690470000000     0.39959    
C30      C      0.349180000000     0.097170000000     0.658520000000     0.403234   
C31      C      0.302120000000     0.121090000000     0.799910000000     0.406136   
C32      C      0.321520000000     0.169260000000     0.551160000000     0.403904   
C33      C      0.976110000000     0.565080000000     0.037870000000     0.400653   
C34      C      0.049490000000     0.476260000000     0.944920000000     0.400644   
C35      C      0.021100000000     0.500540000000     0.113100000000     0.399269   
C36      C      0.005550000000     0.543080000000     0.868790000000     0.401585   
C37      C      0.624010000000     0.899510000000     0.326240000000     0.403131   
C38      C      0.704850000000     0.811280000000     0.266040000000     0.401967   
C39      C      0.661170000000     0.832390000000     0.421240000000     0.400063   
C40      C      0.669520000000     0.879610000000     0.172270000000     0.403942   
C41      C      0.886600000000     0.647800000000     0.130740000000     0.402361   
C42      C      0.793470000000     0.723780000000     0.189090000000     0.400756   
C43      C      0.824050000000     0.687600000000     0.033430000000     0.397467   
C44      C      0.854400000000     0.681540000000     0.287670000000     0.397213   
C45      C      0.440300000000     0.014780000000     0.580630000000     0.404107   
C46      C      0.533860000000     0.950870000000     0.474900000000     0.404306   
C47      C      0.521270000000     0.985620000000     0.647670000000     0.402153   
C48      C      0.453040000000     0.979880000000     0.413170000000     0.404356   
C49      C      0.289880000000     0.095580000000     0.211520000000     0.401165   
C50      C      0.355770000000     0.260760000000     0.133140000000     0.402168   
C51      C      0.331290000000     0.204160000000     0.297840000000     0.403696   
C52      C      0.313710000000     0.153980000000     0.049690000000     0.401756   
C53      C      0.413470000000     0.397920000000     0.983470000000     0.404932   
C54      C      0.517870000000     0.566300000000     0.926660000000     0.402969   
C55      C      0.485490000000     0.498740000000     0.083150000000     0.403642   
C56      C      0.445680000000     0.465530000000     0.831340000000     0.403209   
C57      C      0.148710000000     0.767560000000     0.394630000000     0.399067   
C58      C      0.226900000000     0.936560000000     0.327580000000     0.402537   
C59      C      0.211840000000     0.876470000000     0.482390000000     0.403873   
C60      C      0.164870000000     0.828990000000     0.235400000000     0.39925    
C61      C      0.062050000000     0.589870000000     0.461370000000     0.39776    
C62      C      0.980530000000     0.419420000000     0.518580000000     0.3997     
C63      C      0.028140000000     0.482590000000     0.367090000000     0.403873   
C64      C      0.013950000000     0.525060000000     0.611670000000     0.401085   
C65      C      0.802970000000     0.080030000000     0.688970000000     0.4008     
C66      C      0.889840000000     0.242980000000     0.596150000000     0.401745   
C67      C      0.880660000000     0.191110000000     0.758680000000     0.403855   
C68      C      0.811330000000     0.131760000000     0.523610000000     0.40213    
C69      C      0.617430000000     0.736990000000     0.829310000000     0.402227   
C70      C      0.707930000000     0.906340000000     0.768730000000     0.399546   
C71      C      0.664570000000     0.842500000000     0.921810000000     0.400823   
C72      C      0.660350000000     0.798510000000     0.672180000000     0.403769   
C73      C      0.710320000000     0.977540000000     0.758150000000    -0.0110208  
C74      C      0.778350000000     0.975020000000     0.776120000000    -0.0233871  
C75      C      0.733060000000     0.014260000000     0.708190000000    -0.0137883  
C76      C      0.803710000000     0.012900000000     0.727740000000     0.0304216  
C77      C      0.983620000000     0.354060000000     0.554540000000    -0.0126899  
C78      C      0.911530000000     0.349150000000     0.524700000000    -0.0236816  
C79      C      0.956900000000     0.303840000000     0.547970000000    -0.0106599  
C80      C      0.891410000000     0.312670000000     0.576030000000     0.0314397  
C81      C      0.058290000000     0.657610000000     0.445230000000    -0.0116499  
C82      C      0.128540000000     0.661770000000     0.474060000000    -0.0238017  
C83      C      0.081910000000     0.696420000000     0.398620000000    -0.0139246  
C84      C      0.154020000000     0.701700000000     0.428970000000     0.0298089  
C85      C      0.616700000000     0.672090000000     0.875260000000    -0.0122415  
C86      C      0.545970000000     0.670960000000     0.847600000000    -0.0236873  
C87      C      0.587170000000     0.622170000000     0.878710000000    -0.0104752  
C88      C      0.526510000000     0.639100000000     0.905080000000     0.0325824  
C89      C      0.226460000000     0.024190000000     0.243610000000    -0.0121358  
C90      C      0.301000000000     0.032650000000     0.235270000000    -0.0239157  
C91      C      0.220750000000     0.002690000000     0.310580000000    -0.013412   
C92      C      0.294630000000     0.011370000000     0.302900000000     0.0285812  
C93      C      0.349170000000     0.325640000000     0.101200000000    -0.0141472  
C94      C      0.413950000000     0.318340000000     0.067040000000    -0.025739   
C95      C      0.345070000000     0.337850000000     0.029920000000    -0.0124216  
C96      C      0.402370000000     0.321720000000     0.996350000000     0.0342605  
C97      C      0.700120000000     0.840590000000     0.524640000000    -0.0123558  
C98      C      0.617400000000     0.793850000000     0.518570000000    -0.025592   
C99      C      0.700540000000     0.806790000000     0.571310000000    -0.0122928  
C100     C      0.620210000000     0.762210000000     0.567210000000     0.0332637  
C101     C      0.625250000000     0.841940000000     0.021810000000    -0.0131161  
C102     C      0.707110000000     0.871900000000     0.023020000000    -0.0238271  
C103     C      0.631860000000     0.877770000000     0.070440000000    -0.00946015 
C104     C      0.711860000000     0.909310000000     0.067070000000     0.0297894  
C105     C      0.724640000000     0.718280000000     0.226030000000    -0.012304   
C106     C      0.791430000000     0.792320000000     0.200990000000    -0.0236334  
C107     C      0.700410000000     0.744180000000     0.221420000000    -0.0107955  
C108     C      0.773580000000     0.810450000000     0.253020000000     0.0323519  
C109     C      0.623440000000     0.964450000000     0.372830000000    -0.0111454  
C110     C      0.554580000000     0.899430000000     0.336620000000    -0.02228    
C111     C      0.604600000000     0.960000000000     0.441660000000    -0.013306   
C112     C      0.535530000000     0.891790000000     0.405810000000     0.0297732  
C113     C      0.962140000000     0.532310000000     0.767750000000    -0.00992656 
C114     C      0.040400000000     0.587790000000     0.770220000000    -0.0223748  
C115     C      0.968420000000     0.510510000000     0.707260000000    -0.0143082  
C116     C      0.050750000000     0.566160000000     0.713040000000     0.030188   
C117     C      0.064720000000     0.518400000000     0.214220000000    -0.0130385  
C118     C      0.983460000000     0.461680000000     0.213620000000    -0.0261466  
C119     C      0.071150000000     0.492070000000     0.268630000000    -0.012092   
C120     C      0.992770000000     0.436840000000     0.266520000000     0.0341339  
C121     C      0.913830000000     0.560420000000     0.097370000000    -0.0125737  
C122     C      0.978110000000     0.634500000000     0.064250000000    -0.0242354  
C123     C      0.886610000000     0.582480000000     0.090290000000    -0.00962461 
C124     C      0.958440000000     0.653070000000     0.113650000000     0.0315122  
C125     C      0.268600000000     0.128680000000     0.949490000000    -0.0133763  
C126     C      0.349130000000     0.151170000000     0.947520000000    -0.0257801  
C127     C      0.259590000000     0.092360000000     0.899810000000    -0.0120639  
C128     C      0.337260000000     0.112820000000     0.901480000000     0.034741   
C129     C      0.375020000000     0.231580000000     0.399710000000    -0.00969861 
C130     C      0.297580000000     0.211900000000     0.398790000000    -0.0221978  
C131     C      0.366610000000     0.198700000000     0.454410000000    -0.0138228  
C132     C      0.285410000000     0.175880000000     0.450230000000     0.0308267  
C133     C      0.344580000000     0.027050000000     0.628540000000    -0.0121937  
C134     C      0.415630000000     0.091810000000     0.668080000000    -0.023449   
C135     C      0.371780000000     0.003870000000     0.630090000000    -0.0106792  
C136     C      0.438160000000     0.080350000000     0.614580000000     0.032058   
C137     C      0.039520000000     0.407580000000     0.897930000000    -0.012318   
C138     C      0.115520000000     0.473260000000     0.915080000000    -0.0232299  
C139     C      0.063700000000     0.381770000000     0.895210000000    -0.0105579  
C140     C      0.128760000000     0.454210000000     0.857700000000     0.0304592  
C141     C      0.284110000000     0.269220000000     0.686420000000    -0.0111449  
C142     C      0.212290000000     0.204240000000     0.663040000000    -0.0235664  
C143     C      0.263200000000     0.290860000000     0.725280000000    -0.0134015  
C144     C      0.188110000000     0.223550000000     0.700390000000     0.0311779  
C145     C      0.454060000000     0.435860000000     0.726570000000    -0.00858537 
C146     C      0.412200000000     0.474850000000     0.730750000000    -0.0225885  
C147     C      0.486890000000     0.469370000000     0.679590000000    -0.0132935  
C148     C      0.442480000000     0.508420000000     0.678960000000     0.0284747  
C149     C      0.520400000000     0.569240000000     0.225090000000    -0.0133049  
C150     C      0.553520000000     0.521490000000     0.227930000000    -0.0218111  
C151     C      0.482170000000     0.534860000000     0.183990000000    -0.012393   
C152     C      0.514990000000     0.485920000000     0.189400000000     0.0301887  
C153     C      0.882190000000     0.153650000000     0.907640000000    -0.0132823  
C154     C      0.854920000000     0.208330000000     0.910280000000    -0.0258566  
C155     C      0.915820000000     0.182360000000     0.855690000000    -0.0126236  
C156     C      0.890230000000     0.235780000000     0.860230000000     0.0338094  
C157     C      0.830270000000     0.109290000000     0.365900000000    -0.0130625  
C158     C      0.792270000000     0.154610000000     0.365210000000    -0.0238534  
C159     C      0.804700000000     0.086500000000     0.427720000000    -0.0107366  
C160     C      0.765580000000     0.128010000000     0.424570000000     0.0297662  
C161     C      0.132970000000     0.302690000000     0.521100000000    -0.0128369  
C162     C      0.161870000000     0.384930000000     0.517210000000    -0.0258474  
C163     C      0.097270000000     0.298070000000     0.568560000000    -0.0128498  
C164     C      0.125720000000     0.377910000000     0.565270000000     0.033736   
C165     C      0.194400000000     0.297080000000     0.000150000000    -0.00894963 
C166     C      0.242660000000     0.377430000000     0.994890000000    -0.022162   
C167     C      0.175650000000     0.300040000000     0.065610000000    -0.0140301  
C168     C      0.225250000000     0.384060000000     0.060460000000     0.0291425  
C169     C      0.027070000000     0.301550000000     0.221970000000    -0.0124125  
C170     C      0.023040000000     0.229630000000     0.253170000000    -0.0235354  
C171     C      0.977140000000     0.273130000000     0.219010000000    -0.0111692  
C172     C      0.990820000000     0.209630000000     0.196320000000     0.0317161  
C173     C      0.356110000000     0.404350000000     0.398800000000    -0.0131874  
C174     C      0.356440000000     0.475450000000     0.381820000000    -0.025067   
C175     C      0.330850000000     0.387050000000     0.334310000000    -0.0134524  
C176     C      0.336260000000     0.458910000000     0.314420000000     0.0311609  
C177     C      0.494420000000     0.942510000000     0.802280000000    -0.0132128  
C178     C      0.530070000000     0.025650000000     0.803070000000    -0.0241062  
C179     C      0.524550000000     0.946530000000     0.745670000000    -0.0108757  
C180     C      0.561670000000     0.027180000000     0.750310000000     0.0295865  
C181     C      0.451850000000     0.939880000000     0.265740000000    -0.0125612  
C182     C      0.481830000000     0.022250000000     0.262010000000    -0.0257858  
C183     C      0.417790000000     0.936140000000     0.315870000000    -0.0132173  
C184     C      0.446160000000     0.015780000000     0.310310000000     0.0334749  
C185     C      0.644010000000     0.084030000000     0.083780000000    -0.010868   
C186     C      0.636110000000     0.009700000000     0.099250000000    -0.0223392  
C187     C      0.688960000000     0.100450000000     0.055280000000    -0.0127656  
C188     C      0.685000000000     0.028910000000     0.081080000000     0.0238249  
C189     C      0.215410000000     0.839320000000     0.632420000000    -0.0127237  
C190     C      0.179770000000     0.886840000000     0.637610000000    -0.0260987  
C191     C      0.247380000000     0.870980000000     0.581510000000    -0.0119038  
C192     C      0.212450000000     0.916500000000     0.585870000000     0.0339795  
C193     C      0.128720000000     0.834440000000     0.135790000000    -0.0132933  
C194     C      0.173730000000     0.796240000000     0.134630000000    -0.0236442  
C195     C      0.100000000000     0.802970000000     0.081860000000    -0.0105468  
C196     C      0.140400000000     0.762750000000     0.086740000000     0.0301314  
C197     C      0.312300000000     0.868400000000     0.923700000000    -0.0124112  
C198     C      0.309520000000     0.938230000000     0.930650000000    -0.0247935  
C199     C      0.333880000000     0.878020000000     0.990910000000    -0.0130366  
C200     C      0.332670000000     0.947710000000     0.997380000000     0.0293669  
C201     C      0.841700000000     0.727420000000     0.927790000000    -0.0130643  
C202     C      0.786550000000     0.645880000000     0.933980000000    -0.0260675  
C203     C      0.812810000000     0.732010000000     0.875670000000    -0.0132507  
C204     C      0.758840000000     0.653280000000     0.883770000000     0.0337774  
C205     C      0.885840000000     0.720380000000     0.391490000000    -0.0135913  
C206     C      0.835750000000     0.637570000000     0.388750000000    -0.0242521  
C207     C      0.909040000000     0.714270000000     0.450450000000    -0.0106789  
C208     C      0.862890000000     0.633940000000     0.444540000000     0.0295686  
C209     C      0.651610000000     0.637640000000     0.533570000000    -0.0127109  
C210     C      0.659110000000     0.570580000000     0.512690000000    -0.0237536  
C211     C      0.701370000000     0.660200000000     0.544700000000    -0.0111987  
C212     C      0.686910000000     0.583610000000     0.574610000000     0.0317642  
C213     C      0.974670000000     0.772680000000     0.771200000000    -0.0111035  
C214     C      0.960520000000     0.696260000000     0.785720000000    -0.0231915  
C215     C      0.022610000000     0.788810000000     0.759910000000    -0.0127659  
C216     C      0.010060000000     0.712670000000     0.781750000000     0.0278825  
Cu1      Cu     0.841580000000     0.718520000000     0.651180000000     0.833393   
Cu2      Cu     0.824060000000     0.642930000000     0.676030000000     0.851448   
Cu3      Cu     0.157870000000     0.857420000000     0.867520000000     0.840783   
Cu4      Cu     0.164290000000     0.791660000000     0.849330000000     0.848023   
Cu5      Cu     0.493820000000     0.018450000000     0.029350000000     0.847085   
Cu6      Cu     0.485210000000     0.944690000000     0.037130000000     0.836913   
Cu7      Cu     0.177260000000     0.378880000000     0.283610000000     0.846736   
Cu8      Cu     0.175730000000     0.308600000000     0.297860000000     0.841538   
Cu9      Cu     0.831370000000     0.185490000000     0.140640000000     0.844833   
Cu10     Cu     0.842320000000     0.121780000000     0.133190000000     0.841695   
Cu11     Cu     0.503220000000     0.555660000000     0.458780000000     0.83971    
Cu12     Cu     0.509750000000     0.489230000000     0.450930000000     0.852577   
Cu13     Cu     0.127540000000     0.304060000000     0.798070000000     0.851273   
Cu14     Cu     0.194090000000     0.374260000000     0.773460000000     0.841988   
Cu15     Cu     0.275600000000     0.113510000000     0.663320000000     0.845824   
Cu16     Cu     0.347690000000     0.177500000000     0.688160000000     0.854674   
Cu17     Cu     0.976940000000     0.488090000000     0.986750000000     0.849134   
Cu18     Cu     0.049490000000     0.554480000000     0.994650000000     0.842569   
Cu19     Cu     0.629160000000     0.822760000000     0.286020000000     0.846267   
Cu20     Cu     0.700420000000     0.888700000000     0.307390000000     0.849304   
Cu21     Cu     0.806610000000     0.648930000000     0.164420000000     0.847687   
Cu22     Cu     0.872780000000     0.721710000000     0.156600000000     0.837033   
Cu23     Cu     0.457690000000     0.944980000000     0.541080000000     0.842305   
Cu24     Cu     0.517200000000     0.020160000000     0.518750000000     0.855987   
Cu25     Cu     0.359450000000     0.183250000000     0.175040000000     0.856016   
Cu26     Cu     0.285570000000     0.173880000000     0.172990000000     0.841542   
Cu27     Cu     0.496340000000     0.475680000000     0.949480000000     0.862156   
Cu28     Cu     0.435050000000     0.489360000000     0.964510000000     0.837772   
Cu29     Cu     0.221690000000     0.851240000000     0.350090000000     0.852      
Cu30     Cu     0.153490000000     0.852340000000     0.368730000000     0.836893   
Cu31     Cu     0.056800000000     0.507600000000     0.502410000000     0.845664   
Cu32     Cu     0.985850000000     0.501250000000     0.475760000000     0.84371    
Cu33     Cu     0.876910000000     0.155790000000     0.627490000000     0.841882   
Cu34     Cu     0.815180000000     0.166650000000     0.655260000000     0.84956    
Cu35     Cu     0.697100000000     0.820980000000     0.804380000000     0.851939   
Cu36     Cu     0.628150000000     0.821410000000     0.789160000000     0.842274   
H1       H      0.782200000000     0.988110000000     0.826780000000     0.0433829  
H2       H      0.712470000000     0.992550000000     0.806790000000     0.0400499  
H3       H      0.719230000000     0.036390000000     0.712640000000     0.0454391  
H4       H      0.792870000000     0.953350000000     0.775410000000     0.0482075  
H5       H      0.806510000000     0.998590000000     0.680840000000     0.0357854  
H6       H      0.675250000000     0.957770000000     0.744970000000     0.0437182  
H7       H      0.724470000000     0.999510000000     0.658560000000     0.0411584  
H8       H      0.895450000000     0.369380000000     0.527000000000     0.0485828  
H9       H      0.992860000000     0.362760000000     0.606570000000     0.0468269  
H10      H      0.974930000000     0.289470000000     0.572400000000     0.0444072  
H11      H      0.904240000000     0.333770000000     0.475470000000     0.0437321  
H12      H      0.856090000000     0.292330000000     0.564550000000     0.0354441  
H13      H      0.014490000000     0.366430000000     0.526560000000     0.0429861  
H14      H      0.954280000000     0.295030000000     0.495380000000     0.0404599  
H15      H      0.128430000000     0.672970000000     0.524970000000     0.0452851  
H16      H      0.055040000000     0.670260000000     0.493420000000     0.0417379  
H17      H      0.064450000000     0.715310000000     0.399150000000     0.0449239  
H18      H      0.145880000000     0.642720000000     0.475270000000     0.0493628  
H19      H      0.160440000000     0.689790000000     0.382310000000     0.0356374  
H20      H      0.024910000000     0.635650000000     0.426110000000     0.0446468  
H21      H      0.078780000000     0.683270000000     0.348310000000     0.0412301  
H22      H      0.532620000000     0.693650000000     0.847190000000     0.0487662  
H23      H      0.628760000000     0.684920000000     0.925130000000     0.0441529  
H24      H      0.604120000000     0.608290000000     0.907410000000     0.0436427  
H25      H      0.534810000000     0.651790000000     0.801500000000     0.0443799  
H26      H      0.490550000000     0.621040000000     0.898350000000     0.03544    
H27      H      0.645810000000     0.679770000000     0.845170000000     0.04424    
H28      H      0.582600000000     0.608490000000     0.828520000000     0.042514   
H29      H      0.290820000000     0.006770000000     0.197200000000     0.0460021  
H30      H      0.212040000000     0.997890000000     0.206080000000     0.0403734  
H31      H      0.185390000000     0.980300000000     0.319020000000     0.045062   
H32      H      0.336080000000     0.056760000000     0.227150000000     0.0498162  
H33      H      0.305940000000     0.038450000000     0.339120000000     0.0357026  
H34      H      0.208050000000     0.042110000000     0.242830000000     0.0430955  
H35      H      0.232260000000     0.028780000000     0.348450000000     0.0414324  
H36      H      0.438080000000     0.351490000000     0.085520000000     0.051028   
H37      H      0.367890000000     0.356710000000     0.128980000000     0.0413709  
H38      H      0.333800000000     0.362160000000     0.030110000000     0.0436953  
H39      H      0.429010000000     0.297230000000     0.070210000000     0.05       
H40      H      0.374790000000     0.288920000000     0.982440000000     0.0335201  
H41      H      0.316270000000     0.307320000000     0.123680000000     0.0454565  
H42      H      0.319600000000     0.307840000000     0.005080000000     0.0397324  
H43      H      0.609390000000     0.816370000000     0.545530000000     0.0490059  
H44      H      0.701860000000     0.868020000000     0.553880000000     0.0437661  
H45      H      0.729850000000     0.823320000000     0.603130000000     0.0426488  
H46      H      0.590540000000     0.775100000000     0.483160000000     0.0481936  
H47      H      0.624220000000     0.738040000000     0.537380000000     0.0318961  
H48      H      0.729760000000     0.854060000000     0.493470000000     0.0430774  
H49      H      0.702860000000     0.781430000000     0.542010000000     0.0391915  
H50      H      0.706430000000     0.845430000000     0.053660000000     0.0468816  
H51      H      0.615280000000     0.811260000000     0.049660000000     0.0446847  
H52      H      0.602680000000     0.865840000000     0.102340000000     0.0401928  
H53      H      0.735770000000     0.884450000000     0.989750000000     0.0469472  
H54      H      0.713270000000     0.935270000000     0.034450000000     0.0336205  
H55      H      0.597910000000     0.835540000000     0.988500000000     0.0436698  
H56      H      0.634860000000     0.906140000000     0.042210000000     0.037225   
H57      H      0.827540000000     0.808800000000     0.205320000000     0.0480464  
H58      H      0.724090000000     0.708010000000     0.277530000000     0.0441322  
H59      H      0.668340000000     0.725120000000     0.246240000000     0.0438844  
H60      H      0.784620000000     0.801330000000     0.152110000000     0.0427775  
H61      H      0.788740000000     0.846280000000     0.244100000000     0.035412   
H62      H      0.706750000000     0.687780000000     0.196660000000     0.0427485  
H63      H      0.693610000000     0.747040000000     0.169170000000     0.040856   
H64      H      0.545790000000     0.921460000000     0.309750000000     0.0430333  
H65      H      0.616250000000     0.986960000000     0.344270000000     0.0410514  
H66      H      0.617950000000     0.993170000000     0.463450000000     0.0448279  
H67      H      0.540410000000     0.868080000000     0.308910000000     0.0481962  
H68      H      0.544230000000     0.869350000000     0.431390000000     0.0369336  
H69      H      0.659410000000     0.979300000000     0.375890000000     0.0437981  
H70      H      0.616590000000     0.942060000000     0.472140000000     0.04099    
H71      H      0.032170000000     0.612370000000     0.750890000000     0.0448594  
H72      H      0.953830000000     0.557290000000     0.750930000000     0.0379573  
H73      H      0.940700000000     0.501610000000     0.673320000000     0.0439924  
H74      H      0.069610000000     0.605540000000     0.801990000000     0.0492043  
H75      H      0.063680000000     0.545660000000     0.733450000000     0.040047   
H76      H      0.934110000000     0.507530000000     0.796800000000     0.0428254  
H77      H      0.966170000000     0.479190000000     0.722880000000     0.0425462  
H78      H      0.970940000000     0.481830000000     0.236770000000     0.0503769  
H79      H      0.063460000000     0.546450000000     0.236830000000     0.044099   
H80      H      0.099180000000     0.514770000000     0.299770000000     0.0412231  
H81      H      0.957490000000     0.437720000000     0.180630000000     0.0487957  
H82      H      0.002000000000     0.414880000000     0.240610000000     0.0309749  
H83      H      0.093650000000     0.532110000000     0.181520000000     0.0428038  
H84      H      0.079000000000     0.468210000000     0.245740000000     0.0387756  
H85      H      0.013980000000     0.649860000000     0.071360000000     0.0497792  
H86      H      0.918890000000     0.556990000000     0.150130000000     0.0425115  
H87      H      0.855640000000     0.562680000000     0.117560000000     0.043094   
H88      H      0.973920000000     0.644380000000     0.014380000000     0.0445331  
H89      H      0.970700000000     0.687920000000     0.100330000000     0.0359211  
H90      H      0.894780000000     0.526690000000     0.077270000000     0.0441242  
H91      H      0.877950000000     0.582100000000     0.037990000000     0.0413123  
H92      H      0.360540000000     0.181730000000     0.918500000000     0.0510853  
H93      H      0.270970000000     0.157230000000     0.922640000000     0.0422816  
H94      H      0.231530000000     0.086480000000     0.868400000000     0.0405876  
H95      H      0.376490000000     0.155890000000     0.979630000000     0.0495606  
H96      H      0.327330000000     0.083450000000     0.932730000000     0.0324565  
H97      H      0.240280000000     0.116440000000     0.983170000000     0.0431449  
H98      H      0.250700000000     0.061650000000     0.926960000000     0.0387348  
H99      H      0.307030000000     0.243600000000     0.423620000000     0.042408   
H100     H      0.384370000000     0.263750000000     0.422530000000     0.0378131  
H101     H      0.394740000000     0.213300000000     0.488690000000     0.0433449  
H102     H      0.268970000000     0.203840000000     0.367190000000     0.0474994  
H103     H      0.272480000000     0.143960000000     0.424520000000     0.0377689  
H104     H      0.402880000000     0.235870000000     0.369320000000     0.0428315  
H105     H      0.365800000000     0.169450000000     0.432350000000     0.0422063  
H106     H      0.432870000000     0.127950000000     0.675210000000     0.0492308  
H107     H      0.333990000000     0.027330000000     0.577490000000     0.046429   
H108     H      0.354660000000     0.973130000000     0.601090000000     0.0434377  
H109     H      0.418820000000     0.077610000000     0.714880000000     0.0427276  
H110     H      0.472750000000     0.093860000000     0.629580000000     0.0345185  
H111     H      0.314440000000     0.007860000000     0.657870000000     0.0414367  
H112     H      0.373480000000     0.994300000000     0.681280000000     0.039947   
H113     H      0.131950000000     0.509590000000     0.910700000000     0.0477415  
H114     H      0.026950000000     0.408270000000     0.848450000000     0.0458732  
H115     H      0.041930000000     0.349450000000     0.872100000000     0.0446664  
H116     H      0.127850000000     0.466450000000     0.961000000000     0.0433345  
H117     H      0.164580000000     0.467800000000     0.861070000000     0.0359002  
H118     H      0.010700000000     0.389810000000     0.930390000000     0.043476   
H119     H      0.070240000000     0.375250000000     0.945890000000     0.0415296  
H120     H      0.214800000000     0.212990000000     0.610240000000     0.0439734  
H121     H      0.287960000000     0.280700000000     0.634940000000     0.039142   
H122     H      0.280900000000     0.326470000000     0.713580000000     0.0445764  
H123     H      0.192690000000     0.167860000000     0.666260000000     0.048844   
H124     H      0.177170000000     0.206020000000     0.747860000000     0.0374666  
H125     H      0.317270000000     0.280600000000     0.706340000000     0.0441782  
H126     H      0.268680000000     0.288000000000     0.778120000000     0.0419039  
H127     H      0.383930000000     0.446890000000     0.706050000000     0.0431652  
H128     H      0.427510000000     0.409170000000     0.697540000000     0.0389078  
H129     H      0.499640000000     0.452620000000     0.648060000000     0.0448638  
H130     H      0.399200000000     0.490680000000     0.763840000000     0.0469475  
H131     H      0.466070000000     0.538770000000     0.705140000000     0.035788   
H132     H      0.469780000000     0.421110000000     0.756220000000     0.0425901  
H133     H      0.514950000000     0.494370000000     0.708440000000     0.044133   
H134     H      0.579210000000     0.543700000000     0.193000000000     0.044759   
H135     H      0.546100000000     0.592630000000     0.191300000000     0.0402871  
H136     H      0.471170000000     0.552330000000     0.150580000000     0.0429633  
H137     H      0.568070000000     0.506940000000     0.260660000000     0.0468491  
H138     H      0.490160000000     0.464680000000     0.226020000000     0.0372166  
H139     H      0.509050000000     0.587830000000     0.255280000000     0.0429346  
H140     H      0.454710000000     0.514110000000     0.217380000000     0.0412713  
H141     H      0.823450000000     0.187770000000     0.884490000000     0.0508583  
H142     H      0.853910000000     0.126170000000     0.882500000000     0.0438625  
H143     H      0.923060000000     0.161250000000     0.823720000000     0.0425307  
H144     H      0.850340000000     0.230500000000     0.943950000000     0.0489741  
H145     H      0.920330000000     0.257280000000     0.888530000000     0.0317794  
H146     H      0.897190000000     0.139250000000     0.939590000000     0.0437007  
H147     H      0.946490000000     0.206110000000     0.880870000000     0.0390703  
H148     H      0.819930000000     0.186540000000     0.381910000000     0.0475783  
H149     H      0.863750000000     0.134710000000     0.380520000000     0.0429319  
H150     H      0.823780000000     0.075760000000     0.457890000000     0.0417753  
H151     H      0.771220000000     0.161700000000     0.332850000000     0.0471632  
H152     H      0.737020000000     0.097730000000     0.405280000000     0.0321722  
H153     H      0.833420000000     0.084840000000     0.335600000000     0.0431951  
H154     H      0.774350000000     0.056370000000     0.412580000000     0.0373546  
H155     H      0.192560000000     0.395210000000     0.544810000000     0.0508562  
H156     H      0.160040000000     0.303630000000     0.549920000000     0.0446702  
H157     H      0.087430000000     0.268970000000     0.600330000000     0.0428162  
H158     H      0.168090000000     0.411900000000     0.482790000000     0.0492868  
H159     H      0.096810000000     0.371040000000     0.535170000000     0.0318306  
H160     H      0.119200000000     0.273150000000     0.489330000000     0.0426926  
H161     H      0.068350000000     0.292580000000     0.539710000000     0.0389094  
H162     H      0.271510000000     0.373400000000     0.003610000000     0.0432764  
H163     H      0.222950000000     0.292790000000     0.009880000000     0.0365552  
H164     H      0.171330000000     0.272150000000     0.096510000000     0.0436953  
H165     H      0.253350000000     0.406980000000     0.963730000000     0.0472098  
H166     H      0.201700000000     0.395380000000     0.049630000000     0.038142   
H167     H      0.169880000000     0.267620000000     0.973140000000     0.0421009  
H168     H      0.142540000000     0.295210000000     0.056920000000     0.0432336  
H169     H      0.044130000000     0.214550000000     0.255540000000     0.0477179  
H170     H      0.039770000000     0.313130000000     0.171900000000     0.0443471  
H171     H      0.964160000000     0.290710000000     0.189770000000     0.0430946  
H172     H      0.004130000000     0.220660000000     0.299490000000     0.0422495  
H173     H      0.971510000000     0.173720000000     0.205290000000     0.0352165  
H174     H      0.035860000000     0.331270000000     0.251680000000     0.0426079  
H175     H      0.963850000000     0.269570000000     0.269240000000     0.0405029  
H176     H      0.329990000000     0.467280000000     0.417980000000     0.0478738  
H177     H      0.332040000000     0.392310000000     0.439370000000     0.0410075  
H178     H      0.309270000000     0.350990000000     0.338260000000     0.0452585  
H179     H      0.377770000000     0.511730000000     0.380850000000     0.0492745  
H180     H      0.363710000000     0.465790000000     0.280880000000     0.032802   
H181     H      0.377620000000     0.390110000000     0.405900000000     0.0441233  
H182     H      0.354840000000     0.393140000000     0.294910000000     0.0401861  
H183     H      0.502920000000     0.027930000000     0.779570000000     0.0471333  
H184     H      0.462210000000     0.934290000000     0.781490000000     0.0431117  
H185     H      0.508170000000     0.916850000000     0.714280000000     0.0421851  
H186     H      0.547590000000     0.054290000000     0.836360000000     0.0473282  
H187     H      0.588600000000     0.025800000000     0.776150000000     0.0326472  
H188     H      0.489140000000     0.914580000000     0.833830000000     0.0431074  
H189     H      0.553940000000     0.947450000000     0.766760000000     0.0375689  
H190     H      0.512380000000     0.031500000000     0.289400000000     0.0501541  
H191     H      0.479500000000     0.940580000000     0.292550000000     0.0414134  
H192     H      0.408780000000     0.907400000000     0.348010000000     0.043267   
H193     H      0.488690000000     0.049690000000     0.228190000000     0.0494829  
H194     H      0.416930000000     0.007950000000     0.280440000000     0.0338577  
H195     H      0.436840000000     0.910100000000     0.234450000000     0.0426149  
H196     H      0.388000000000     0.930290000000     0.289130000000     0.0397413  
H197     H      0.632260000000     0.007970000000     0.153390000000     0.0449286  
H198     H      0.647260000000     0.091750000000     0.136860000000     0.0423262  
H199     H      0.707730000000     0.136680000000     0.060480000000     0.0442711  
H200     H      0.617400000000     0.975440000000     0.080740000000     0.0467765  
H201     H      0.686200000000     0.020000000000     0.029340000000     0.0339301  
H202     H      0.629440000000     0.102100000000     0.060010000000     0.0436118  
H203     H      0.685420000000     0.093270000000     0.002000000000     0.0403592  
H204     H      0.148320000000     0.863860000000     0.613460000000     0.0488204  
H205     H      0.188960000000     0.810490000000     0.606650000000     0.044621   
H206     H      0.258530000000     0.852910000000     0.549680000000     0.0435543  
H207     H      0.173280000000     0.907160000000     0.672440000000     0.0484959  
H208     H      0.241720000000     0.941190000000     0.612990000000     0.0308757  
H209     H      0.233020000000     0.827460000000     0.663850000000     0.0424993  
H210     H      0.276290000000     0.897230000000     0.607370000000     0.0382097  
H211     H      0.202290000000     0.821730000000     0.107080000000     0.047706   
H212     H      0.152220000000     0.866100000000     0.112500000000     0.0427273  
H213     H      0.087270000000     0.819630000000     0.050010000000     0.0416397  
H214     H      0.185490000000     0.779460000000     0.168280000000     0.0467468  
H215     H      0.112810000000     0.737790000000     0.116450000000     0.0333296  
H216     H      0.107970000000     0.841160000000     0.169100000000     0.0428948  
H217     H      0.071380000000     0.775000000000     0.105660000000     0.0376521  
H218     H      0.334420000000     0.955190000000     0.891840000000     0.0460637  
H219     H      0.338300000000     0.881210000000     0.885870000000     0.0411407  
H220     H      0.353280000000     0.861240000000     0.994560000000     0.0444061  
H221     H      0.287020000000     0.951690000000     0.929650000000     0.0494467  
H222     H      0.306390000000     0.932110000000     0.034610000000     0.0337245  
H223     H      0.292390000000     0.832300000000     0.917380000000     0.0439426  
H224     H      0.307790000000     0.863280000000     0.028550000000     0.039934   
H225     H      0.806640000000     0.634290000000     0.908340000000     0.0498491  
H226     H      0.868270000000     0.725090000000     0.902570000000     0.0417912  
H227     H      0.833720000000     0.759730000000     0.842630000000     0.0415627  
H228     H      0.764840000000     0.619620000000     0.968580000000     0.049523   
H229     H      0.738180000000     0.663100000000     0.911840000000     0.0318567  
H230     H      0.856970000000     0.757560000000     0.958320000000     0.0417937  
H231     H      0.789830000000     0.740080000000     0.900710000000     0.0384772  
H232     H      0.805930000000     0.636120000000     0.409250000000     0.0471303  
H233     H      0.862720000000     0.730590000000     0.409820000000     0.0440809  
H234     H      0.922560000000     0.743860000000     0.482080000000     0.0420854  
H235     H      0.825170000000     0.609170000000     0.355100000000     0.0476298  
H236     H      0.891180000000     0.633620000000     0.421510000000     0.0329804  
H237     H      0.910410000000     0.747670000000     0.360980000000     0.0436746  
H238     H      0.937220000000     0.711750000000     0.431820000000     0.0376288  
H239     H      0.639500000000     0.534220000000     0.509360000000     0.0483445  
H240     H      0.635590000000     0.637710000000     0.580220000000     0.0460058  
H241     H      0.712260000000     0.691250000000     0.572040000000     0.0437026  
H242     H      0.681300000000     0.581700000000     0.469740000000     0.0426417  
H243     H      0.707170000000     0.567640000000     0.571840000000     0.0358986  
H244     H      0.644570000000     0.657250000000     0.498160000000     0.0420958  
H245     H      0.718010000000     0.669270000000     0.496480000000     0.0406876  
H246     H      0.950340000000     0.693670000000     0.837800000000     0.044399   
H247     H      0.969680000000     0.776390000000     0.823940000000     0.0396723  
H248     H      0.041280000000     0.823780000000     0.774900000000     0.0438226  
H249     H      0.942440000000     0.662690000000     0.764530000000     0.0483637  
H250     H      0.017180000000     0.706020000000     0.731510000000     0.0352895  
H251     H      0.965430000000     0.793830000000     0.743130000000     0.0426192  
H252     H      0.027880000000     0.787820000000     0.706520000000     0.0406428  
N1       N      0.781130000000     0.038320000000     0.714390000000    -0.16764    
N2       N      0.731530000000     0.950950000000     0.761610000000    -0.164644   
N3       N      0.912490000000     0.285550000000     0.575040000000    -0.169671   
N4       N      0.959270000000     0.375530000000     0.532160000000    -0.163221   
N5       N      0.128850000000     0.724260000000     0.413650000000    -0.166916   
N6       N      0.082860000000     0.634550000000     0.453900000000    -0.163463   
N7       N      0.543880000000     0.608760000000     0.906920000000    -0.170529   
N8       N      0.594030000000     0.694240000000     0.848800000000    -0.163616   
N9       N      0.247150000000     0.980840000000     0.314160000000    -0.167374   
N10      N      0.273180000000     0.052710000000     0.229590000000    -0.165064   
N11      N      0.387020000000     0.353930000000     0.995670000000    -0.169728   
N12      N      0.373190000000     0.301230000000     0.104980000000    -0.165028   
N13      N      0.659610000000     0.786530000000     0.608360000000    -0.169287   
N14      N      0.659670000000     0.820780000000     0.485270000000    -0.164221   
N15      N      0.672080000000     0.891870000000     0.108130000000    -0.169308   
N16      N      0.665850000000     0.853490000000     0.986060000000    -0.164777   
N17      N      0.725620000000     0.788730000000     0.249280000000    -0.170363   
N18      N      0.770330000000     0.744110000000     0.204350000000    -0.163816   
N19      N      0.556250000000     0.934620000000     0.441400000000    -0.16898    
N20      N      0.602240000000     0.921200000000     0.341520000000    -0.165907   
N21      N      0.010910000000     0.537350000000     0.674050000000    -0.167062   
N22      N      0.002550000000     0.554140000000     0.805710000000    -0.164472   
N23      N      0.030490000000     0.468500000000     0.305790000000    -0.169485   
N24      N      0.023750000000     0.491480000000     0.177390000000    -0.163533   
N25      N      0.910150000000     0.628240000000     0.113220000000    -0.170085   
N26      N      0.956670000000     0.586240000000     0.065670000000    -0.163554   
N27      N      0.299380000000     0.105730000000     0.861930000000    -0.17051    
N28      N      0.310100000000     0.143120000000     0.985020000000    -0.164676   
N29      N      0.324660000000     0.184010000000     0.488550000000    -0.16872    
N30      N      0.335060000000     0.216830000000     0.361650000000    -0.165979   
N31      N      0.416690000000     0.032360000000     0.605900000000    -0.170353   
N32      N      0.368950000000     0.072520000000     0.652800000000    -0.163694   
N33      N      0.105540000000     0.405770000000     0.860050000000    -0.169577   
N34      N      0.067790000000     0.453040000000     0.920440000000    -0.163637   
N35      N      0.215780000000     0.271350000000     0.714350000000    -0.167757   
N36      N      0.256740000000     0.221330000000     0.687560000000    -0.163868   
N37      N      0.467870000000     0.491800000000     0.642160000000    -0.167717   
N38      N      0.436060000000     0.457430000000     0.766550000000    -0.166226   
N39      N      0.495240000000     0.506630000000     0.148380000000    -0.169033   
N40      N      0.537970000000     0.546830000000     0.264730000000    -0.165579   
N41      N      0.898420000000     0.206110000000     0.819140000000    -0.169118   
N42      N      0.866440000000     0.178840000000     0.945660000000    -0.16354    
N43      N      0.793030000000     0.115410000000     0.463500000000    -0.168393   
N44      N      0.810280000000     0.130910000000     0.329050000000    -0.164028   
N45      N      0.114260000000     0.338910000000     0.606020000000    -0.169223   
N46      N      0.150260000000     0.343630000000     0.482580000000    -0.163543   
N47      N      0.202110000000     0.342650000000     0.099130000000    -0.167573   
N48      N      0.208880000000     0.337640000000     0.963340000000    -0.165373   
N49      N      0.962230000000     0.228940000000     0.192070000000    -0.169799   
N50      N      0.048180000000     0.277840000000     0.248580000000    -0.16352    
N51      N      0.307080000000     0.410450000000     0.318450000000    -0.168051   
N52      N      0.380370000000     0.452810000000     0.400510000000    -0.164659   
N53      N      0.537930000000     0.987340000000     0.709060000000    -0.168347   
N54      N      0.511460000000     0.983880000000     0.839480000000    -0.164181   
N55      N      0.436000000000     0.977610000000     0.352240000000    -0.168734   
N56      N      0.468620000000     0.980670000000     0.226970000000    -0.164268   
N57      N      0.710030000000     0.077830000000     0.085920000000    -0.166624   
N58      N      0.617610000000     0.036370000000     0.074910000000    -0.164762   
N59      N      0.225360000000     0.890210000000     0.545000000000    -0.16927    
N60      N      0.195800000000     0.860450000000     0.671420000000    -0.16407    
N61      N      0.124250000000     0.786150000000     0.044970000000    -0.168463   
N62      N      0.153830000000     0.817810000000     0.171490000000    -0.164359   
N63      N      0.359630000000     0.925960000000     0.000840000000    -0.167598   
N64      N      0.286640000000     0.890690000000     0.917070000000    -0.164593   
N65      N      0.788120000000     0.690080000000     0.840750000000    -0.169013   
N66      N      0.816390000000     0.687510000000     0.967790000000    -0.163546   
N67      N      0.879320000000     0.673740000000     0.485940000000    -0.167821   
N68      N      0.860920000000     0.679570000000     0.353330000000    -0.163315   
N69      N      0.714550000000     0.631780000000     0.579240000000    -0.169307   
N70      N      0.632480000000     0.591970000000     0.510410000000    -0.163081   
N71      N      0.036760000000     0.760850000000     0.793570000000    -0.167422   
N72      N      0.948850000000     0.726290000000     0.753210000000    -0.164928   
O1       O      0.899980000000     0.737810000000     0.694940000000    -0.396309   
O2       O      0.780630000000     0.690910000000     0.610140000000    -0.391361   
O3       O      0.816830000000     0.718750000000     0.740470000000    -0.397013   
O4       O      0.865890000000     0.711880000000     0.564760000000    -0.396373   
O5       O      0.848400000000     0.643080000000     0.585730000000    -0.391995   
O6       O      0.800740000000     0.650390000000     0.763120000000    -0.393007   
O7       O      0.765550000000     0.623180000000     0.635160000000    -0.401068   
O8       O      0.884400000000     0.669390000000     0.715570000000    -0.399757   
O9       O      0.095640000000     0.821450000000     0.836940000000    -0.400505   
O10      O      0.221520000000     0.887750000000     0.895590000000    -0.396764   
O11      O      0.176170000000     0.872740000000     0.772640000000    -0.396377   
O12      O      0.138720000000     0.834530000000     0.960260000000    -0.395237   
O13      O      0.145120000000     0.775660000000     0.943210000000    -0.395511   
O14      O      0.183760000000     0.814230000000     0.757380000000    -0.398689   
O15      O      0.226780000000     0.827960000000     0.880360000000    -0.398243   
O16      O      0.100790000000     0.761840000000     0.819790000000    -0.391817   
O17      O      0.428320000000     0.987310000000     0.012520000000    -0.392062   
O18      O      0.557880000000     0.042050000000     0.047500000000    -0.39933    
O19      O      0.505180000000     0.016240000000     0.932730000000    -0.398036   
O20      O      0.482830000000     0.014240000000     0.126920000000    -0.398507   
O21      O      0.473950000000     0.947130000000     0.134060000000    -0.39603    
O22      O      0.496350000000     0.949110000000     0.939020000000    -0.395658   
O23      O      0.550550000000     0.975620000000     0.055350000000    -0.395473   
O24      O      0.421090000000     0.921140000000     0.019260000000    -0.398882   
O25      O      0.112470000000     0.342390000000     0.263290000000    -0.396748   
O26      O      0.241540000000     0.408350000000     0.303510000000    -0.39642    
O27      O      0.191300000000     0.375780000000     0.188220000000    -0.393495   
O28      O      0.164330000000     0.375680000000     0.381070000000    -0.395338   
O29      O      0.163340000000     0.312340000000     0.393700000000    -0.397371   
O30      O      0.186880000000     0.310770000000     0.200430000000    -0.398082   
O31      O      0.241370000000     0.345570000000     0.313580000000    -0.395165   
O32      O      0.110960000000     0.279100000000     0.279790000000    -0.398686   
O33      O      0.768850000000     0.144170000000     0.114390000000    -0.399421   
O34      O      0.895230000000     0.220710000000     0.167180000000    -0.396954   
O35      O      0.847970000000     0.195620000000     0.044630000000    -0.398053   
O36      O      0.815160000000     0.168840000000     0.235520000000    -0.397629   
O37      O      0.827940000000     0.113050000000     0.230210000000    -0.396007   
O38      O      0.856870000000     0.137470000000     0.037430000000    -0.39561    
O39      O      0.905390000000     0.163480000000     0.156570000000    -0.398074   
O40      O      0.777690000000     0.086080000000     0.110270000000    -0.391066   
O41      O      0.567020000000     0.587890000000     0.487050000000    -0.393909   
O42      O      0.440630000000     0.517360000000     0.430060000000    -0.398703   
O43      O      0.484480000000     0.537660000000     0.553040000000    -0.391867   
O44      O      0.521070000000     0.565970000000     0.363030000000    -0.396393   
O45      O      0.527110000000     0.506010000000     0.356790000000    -0.402224   
O46      O      0.492170000000     0.478820000000     0.545820000000    -0.402066   
O47      O      0.445590000000     0.456820000000     0.425290000000    -0.397323   
O48      O      0.572750000000     0.527950000000     0.477430000000    -0.400066   
O49      O      0.157910000000     0.273990000000     0.759380000000    -0.399222   
O50      O      0.103300000000     0.341110000000     0.835030000000    -0.39831    
O51      O      0.107030000000     0.308140000000     0.706980000000    -0.396121   
O52      O      0.155410000000     0.306040000000     0.885690000000    -0.397663   
O53      O      0.214010000000     0.370980000000     0.865170000000    -0.398149   
O54      O      0.167210000000     0.371460000000     0.684580000000    -0.393811   
O55      O      0.162550000000     0.404340000000     0.809450000000    -0.396809   
O56      O      0.219200000000     0.336770000000     0.740080000000    -0.395207   
O57      O      0.250980000000     0.153730000000     0.678490000000    -0.398352   
O58      O      0.307890000000     0.079650000000     0.649600000000    -0.39492    
O59      O      0.270840000000     0.099080000000     0.759880000000    -0.398791   
O60      O      0.286810000000     0.134590000000     0.569630000000    -0.396736   
O61      O      0.352650000000     0.191410000000     0.591400000000    -0.399465   
O62      O      0.336440000000     0.156290000000     0.781850000000    -0.39869    
O63      O      0.372300000000     0.137760000000     0.673550000000    -0.403535   
O64      O      0.315910000000     0.211720000000     0.700040000000    -0.398641   
O65      O      0.952810000000     0.524230000000     0.024540000000    -0.403633   
O66      O      0.007950000000     0.457560000000     0.950530000000    -0.400171   
O67      O      0.987100000000     0.474830000000     0.079620000000    -0.397678   
O68      O      0.973760000000     0.508840000000     0.894880000000    -0.395701   
O69      O      0.040590000000     0.566890000000     0.901180000000    -0.398853   
O70      O      0.051920000000     0.535610000000     0.087440000000    -0.397486   
O71      O      0.073830000000     0.516530000000     0.961660000000    -0.396143   
O72      O      0.017350000000     0.585650000000     0.026780000000    -0.392365   
O73      O      0.602060000000     0.859210000000     0.309250000000    -0.404595   
O74      O      0.663120000000     0.792130000000     0.263520000000    -0.399486   
O75      O      0.629430000000     0.808460000000     0.382620000000    -0.395527   
O76      O      0.635700000000     0.844620000000     0.192440000000    -0.397551   
O77      O      0.700430000000     0.903380000000     0.211830000000    -0.396327   
O78      O      0.694490000000     0.867410000000     0.400400000000    -0.400464   
O79      O      0.727350000000     0.851570000000     0.283590000000    -0.398327   
O80      O      0.665810000000     0.919130000000     0.329610000000    -0.395979   
O81      O      0.845240000000     0.624160000000     0.138950000000    -0.399895   
O82      O      0.774640000000     0.681710000000     0.188530000000    -0.395784   
O83      O      0.797370000000     0.654940000000     0.068390000000    -0.399499   
O84      O      0.822270000000     0.648790000000     0.259590000000    -0.398302   
O85      O      0.879780000000     0.716200000000     0.254800000000    -0.392029   
O86      O      0.858110000000     0.719750000000     0.059440000000    -0.392371   
O87      O      0.834120000000     0.747140000000     0.175790000000    -0.401201   
O88      O      0.905780000000     0.689520000000     0.137920000000    -0.397344   
O89      O      0.424350000000     0.973060000000     0.579340000000    -0.396565   
O90      O      0.496310000000     0.924720000000     0.499290000000    -0.396511   
O91      O      0.487020000000     0.950490000000     0.628910000000    -0.396706   
O92      O      0.434650000000     0.946410000000     0.450970000000    -0.396862   
O93      O      0.488010000000     0.014530000000     0.431010000000    -0.395453   
O94      O      0.539780000000     0.018680000000     0.609220000000    -0.395212   
O95      O      0.550440000000     0.992460000000     0.480360000000    -0.400449   
O96      O      0.478590000000     0.040640000000     0.558420000000    -0.402173   
O97      O      0.331110000000     0.120010000000     0.204000000000    -0.401561   
O98      O      0.380710000000     0.244860000000     0.144320000000    -0.404547   
O99      O      0.362880000000     0.202820000000     0.269370000000    -0.398847   
O100     O      0.348930000000     0.163690000000     0.080600000000    -0.401149   
O101     O      0.282280000000     0.155290000000     0.078590000000    -0.400041   
O102     O      0.295740000000     0.193170000000     0.267180000000    -0.402588   
O103     O      0.314630000000     0.237890000000     0.144050000000    -0.394943   
O104     O      0.264260000000     0.111020000000     0.201870000000    -0.396983   
O105     O      0.454070000000     0.413050000000     0.972610000000    -0.402313   
O106     O      0.532960000000     0.539930000000     0.926380000000    -0.401663   
O107     O      0.508920000000     0.489750000000     0.045660000000    -0.397309   
O108     O      0.477210000000     0.461970000000     0.855280000000    -0.401796   
O109     O      0.423540000000     0.477090000000     0.867430000000    -0.3977     
O110     O      0.453140000000     0.501200000000     0.059810000000    -0.397258   
O111     O      0.478210000000     0.552840000000     0.943240000000    -0.398006   
O112     O      0.397740000000     0.423840000000     0.983760000000    -0.395003   
O113     O      0.188930000000     0.787640000000     0.377720000000    -0.395873   
O114     O      0.247890000000     0.915610000000     0.325180000000    -0.392684   
O115     O      0.236280000000     0.868960000000     0.444770000000    -0.397878   
O116     O      0.200460000000     0.832650000000     0.257370000000    -0.398794   
O117     O      0.139890000000     0.836040000000     0.272710000000    -0.395397   
O118     O      0.175010000000     0.870640000000     0.462080000000    -0.391907   
O119     O      0.186460000000     0.916240000000     0.343240000000    -0.398915   
O120     O      0.126790000000     0.787650000000     0.393080000000    -0.394431   
O121     O      0.084150000000     0.571710000000     0.478530000000    -0.397988   
O122     O      0.022170000000     0.442380000000     0.524480000000    -0.394062   
O123     O      0.059420000000     0.492410000000     0.407410000000    -0.396928   
O124     O      0.047860000000     0.523280000000     0.594310000000    -0.393689   
O125     O      0.982980000000     0.515870000000     0.571000000000    -0.396114   
O126     O      0.994680000000     0.485310000000     0.383910000000    -0.394763   
O127     O      0.958530000000     0.437260000000     0.499500000000    -0.398798   
O128     O      0.020460000000     0.566720000000     0.454770000000    -0.393972   
O129     O      0.841110000000     0.094790000000     0.664580000000    -0.39669    
O130     O      0.907270000000     0.218620000000     0.593510000000    -0.396065   
O131     O      0.899830000000     0.178160000000     0.718770000000    -0.395577   
O132     O      0.847120000000     0.133230000000     0.539540000000    -0.396513   
O133     O      0.792230000000     0.144230000000     0.564270000000    -0.394825   
O134     O      0.844620000000     0.189080000000     0.743070000000    -0.395109   
O135     O      0.851300000000     0.227950000000     0.619240000000    -0.397897   
O136     O      0.784940000000     0.103880000000     0.689130000000    -0.396706   
O137     O      0.659270000000     0.756760000000     0.829110000000    -0.397344   
O138     O      0.727930000000     0.885110000000     0.780110000000    -0.401393   
O139     O      0.695770000000     0.838290000000     0.898090000000    -0.40075    
O140     O      0.692380000000     0.804600000000     0.708590000000    -0.398968   
O141     O      0.629960000000     0.804600000000     0.694620000000    -0.393171   
O142     O      0.632320000000     0.836440000000     0.885850000000    -0.396889   
O143     O      0.666080000000     0.886360000000     0.767760000000    -0.396679   
O144     O      0.597300000000     0.757260000000     0.812730000000    -0.399838   
S1       S      0.852600000000     0.043020000000     0.757100000000    -0.0118486  
S2       S      0.895370000000     0.333070000000     0.648180000000    -0.0017983  
S3       S      0.200720000000     0.733510000000     0.463840000000    -0.0091444  
S4       S      0.536540000000     0.665240000000     0.973540000000    -0.00864969 
S5       S      0.326190000000     0.990680000000     0.311510000000    -0.000135394
S6       S      0.441310000000     0.331220000000     0.945630000000    -0.00768789 
S7       S      0.575330000000     0.734390000000     0.608000000000    -0.00935463 
S8       S      0.757610000000     0.930760000000     0.106660000000    -0.00834442 
S9       S      0.788060000000     0.804290000000     0.325360000000    -0.00841355 
S10      S      0.482760000000     0.867020000000     0.399840000000    -0.0102681  
S11      S      0.088910000000     0.604690000000     0.669140000000    -0.0105832  
S12      S      0.949650000000     0.405290000000     0.309110000000    -0.0125929  
S13      S      0.975890000000     0.652940000000     0.186550000000    -0.00970542 
S14      S      0.378690000000     0.119340000000     0.858810000000    -0.0113139  
S15      S      0.246610000000     0.173790000000     0.495290000000    -0.0130739  
S16      S      0.438070000000     0.103480000000     0.546280000000     0.0023637  
S17      S      0.119210000000     0.470170000000     0.788720000000    -0.00168032 
S18      S      0.144830000000     0.212840000000     0.658540000000    -0.013545   
S19      S      0.412720000000     0.520360000000     0.632400000000    -0.00739304 
S20      S      0.529250000000     0.454720000000     0.151160000000    -0.00749234 
S21      S      0.878740000000     0.268110000000     0.819230000000    -0.0084476  
S22      S      0.746570000000     0.154870000000     0.463720000000    -0.00685804 
S23      S      0.138300000000     0.421760000000     0.607080000000    -0.00903975 
S24      S      0.265840000000     0.422810000000     0.100500000000    -0.00980781 
S25      S      0.016310000000     0.216660000000     0.127950000000    -0.00736341 
S26      S      0.314860000000     0.486940000000     0.286220000000    -0.0047202  
S27      S      0.583620000000     0.073580000000     0.711770000000    -0.0068694  
S28      S      0.458330000000     0.060230000000     0.350180000000    -0.00670065 
S29      S      0.704350000000     0.004460000000     0.125730000000     0.00841513 
S30      S      0.194550000000     0.943750000000     0.545030000000    -0.0102463  
S31      S      0.161070000000     0.737120000000     0.048400000000    -0.00840286 
S32      S      0.357930000000     0.999820000000     0.012700000000    -0.00472141 
S33      S      0.725620000000     0.608640000000     0.845240000000    -0.00928633 
S34      S      0.835130000000     0.587570000000     0.482340000000    -0.00759647 
S35      S      0.656710000000     0.564850000000     0.639060000000    -0.00192812 
S36      S      0.020720000000     0.683600000000     0.832150000000    -0.00374092 


