data_structure

_audit_creation_method RASPA-1.0
_audit_creation_date 2023-6-5
_audit_author_name 'Poobodin Mano'

_cell_length_a    34.9549
_cell_length_b    34.9322
_cell_length_c    20.7117
_cell_angle_alpha 89.9799
_cell_angle_beta  90.0204
_cell_angle_gamma 119.979
_cell_volume      21906.5

_symmetry_cell_setting          triclinic
_symmetry_space_group_name_Hall 'P 1'
_symmetry_space_group_name_H-M  'P 1'
_symmetry_Int_Tables_number     1

_symmetry_equiv_pos_as_xyz 'x,y,z'

loop_
_atom_site_label
_atom_site_type_symbol
_atom_site_fract_x
_atom_site_fract_y
_atom_site_fract_z
_atom_site_charge
C1       C      0.920100000000     0.703950000000     0.730340000000     0.403967   
C2       C      0.754400000000     0.633250000000     0.645580000000     0.398302   
C3       C      0.809000000000     0.670620000000     0.805350000000     0.405642   
C4       C      0.865830000000     0.667100000000     0.567800000000     0.398626   
C5       C      0.096910000000     0.795500000000     0.785850000000     0.399812   
C6       C      0.259250000000     0.885510000000     0.883150000000     0.401056   
C7       C      0.211060000000     0.870720000000     0.717510000000     0.405487   
C8       C      0.147800000000     0.812010000000     0.953300000000     0.39937    
C9       C      0.586080000000     0.030710000000     0.037870000000     0.401256   
C10      C      0.412580000000     0.960190000000     0.008200000000     0.407337   
C11      C      0.490740000000     0.995020000000     0.148500000000     0.402127   
C12      C      0.509040000000     0.996180000000     0.893660000000     0.400456   
C13      C      0.095370000000     0.317360000000     0.254500000000     0.405783   
C14      C      0.265100000000     0.400970000000     0.324310000000     0.404646   
C15      C      0.203100000000     0.362070000000     0.164790000000     0.398417   
C16      C      0.156800000000     0.356860000000     0.410990000000     0.398976   
C17      C      0.933710000000     0.220960000000     0.142560000000     0.400623   
C18      C      0.765090000000     0.115610000000     0.079340000000     0.406254   
C19      C      0.828810000000     0.153320000000     0.237920000000     0.397481   
C20      C      0.867440000000     0.181080000000     0.987280000000     0.398926   
C21      C      0.585560000000     0.554300000000     0.543580000000     0.403411   
C22      C      0.418940000000     0.468510000000     0.459840000000     0.398906   
C23      C      0.474790000000     0.480400000000     0.622140000000     0.406015   
C24      C      0.531370000000     0.541430000000     0.385240000000     0.401461   
C25      C      0.237660000000     0.332370000000     0.740330000000     0.40132    
C26      C      0.140040000000     0.395510000000     0.840390000000     0.404667   
C27      C      0.158910000000     0.362730000000     0.674240000000     0.401752   
C28      C      0.221490000000     0.365450000000     0.909870000000     0.405694   
C29      C      0.387840000000     0.136560000000     0.622270000000     0.404164   
C30      C      0.323890000000     0.243630000000     0.671970000000     0.405089   
C31      C      0.360940000000     0.211490000000     0.520040000000     0.40516    
C32      C      0.351420000000     0.170390000000     0.769330000000     0.400965   
C33      C      0.050660000000     0.469850000000     0.950960000000     0.400196   
C34      C      0.964280000000     0.556130000000     0.001150000000     0.398575   
C35      C      0.004070000000     0.524720000000     0.847060000000     0.39695    
C36      C      0.011150000000     0.499790000000     0.099790000000     0.399542   
C37      C      0.619880000000     0.874860000000     0.333760000000     0.403461   
C38      C      0.707770000000     0.795700000000     0.250970000000     0.398377   
C39      C      0.674690000000     0.819100000000     0.413850000000     0.398872   
C40      C      0.653470000000     0.852700000000     0.169230000000     0.401476   
C41      C      0.887380000000     0.626150000000     0.146690000000     0.403402   
C42      C      0.801070000000     0.709330000000     0.219450000000     0.40393    
C43      C      0.825210000000     0.670670000000     0.060180000000     0.398857   
C44      C      0.863320000000     0.664050000000     0.307680000000     0.401559   
C45      C      0.549440000000     0.952670000000     0.480470000000     0.398909   
C46      C      0.466280000000     0.037620000000     0.556700000000     0.397612   
C47      C      0.478840000000     0.993920000000     0.402100000000     0.408153   
C48      C      0.534640000000     0.996610000000     0.641700000000     0.406342   
C49      C      0.387920000000     0.249440000000     0.094340000000     0.398213   
C50      C      0.317690000000     0.083830000000     0.179160000000     0.400788   
C51      C      0.348180000000     0.138420000000     0.017260000000     0.40799    
C52      C      0.358130000000     0.192820000000     0.259850000000     0.398493   
C53      C      0.466400000000     0.427550000000     0.033310000000     0.402696   
C54      C      0.555340000000     0.599460000000     0.975130000000     0.405276   
C55      C      0.528740000000     0.532530000000     0.128300000000     0.404138   
C56      C      0.493060000000     0.495300000000     0.878550000000     0.398765   
C57      C      0.238370000000     0.929390000000     0.307960000000     0.40618    
C58      C      0.136320000000     0.758880000000     0.365480000000     0.40435    
C59      C      0.169070000000     0.825650000000     0.210380000000     0.401414   
C60      C      0.203610000000     0.861350000000     0.460930000000     0.398414   
C61      C      0.049740000000     0.581390000000     0.421880000000     0.400358   
C62      C      0.974940000000     0.414830000000     0.502460000000     0.398118   
C63      C      0.018120000000     0.472710000000     0.345600000000     0.407074   
C64      C      0.006250000000     0.523600000000     0.583800000000     0.403457   
C65      C      0.881750000000     0.236050000000     0.573560000000     0.401608   
C66      C      0.779400000000     0.069610000000     0.650440000000     0.399404   
C67      C      0.800710000000     0.130230000000     0.490590000000     0.404474   
C68      C      0.864320000000     0.178350000000     0.728740000000     0.405976   
C69      C      0.621370000000     0.751830000000     0.840160000000     0.401173   
C70      C      0.674250000000     0.908920000000     0.737050000000     0.409749   
C71      C      0.646670000000     0.860870000000     0.911710000000     0.399746   
C72      C      0.654350000000     0.812880000000     0.672560000000     0.409998   
C73      C      0.761970000000     0.991390000000     0.659940000000    -0.00387947 
C74      C      0.714100000000     0.018310000000     0.714180000000    -0.0428322  
C75      C      0.719250000000     0.948370000000     0.642580000000    -0.0405465  
C76      C      0.673000000000     0.975100000000     0.694680000000     0.0918141  
C77      C      0.905900000000     0.345530000000     0.518130000000    -0.0129306  
C78      C      0.979630000000     0.350160000000     0.542450000000    -0.0408188  
C79      C      0.888410000000     0.308980000000     0.567790000000    -0.00979263 
C80      C      0.953320000000     0.299040000000     0.535280000000     0.0899483  
C81      C      0.117260000000     0.648350000000     0.385660000000    -0.012655   
C82      C      0.043410000000     0.642320000000     0.370620000000    -0.0407834  
C83      C      0.135310000000     0.694310000000     0.413330000000    -0.0108552  
C84      C      0.062770000000     0.690880000000     0.392170000000     0.0902121  
C85      C      0.558680000000     0.680750000000     0.876270000000    -0.0132359  
C86      C      0.636100000000     0.693540000000     0.882610000000    -0.0424605  
C87      C      0.551330000000     0.665660000000     0.946330000000    -0.0108759  
C88      C      0.625720000000     0.672940000000     0.950930000000     0.0906142  
C89      C      0.250440000000     0.015230000000     0.211660000000    -0.0133124  
C90      C      0.324170000000     0.019200000000     0.215630000000    -0.0426542  
C91      C      0.242210000000     0.999830000000     0.281520000000    -0.0105236  
C92      C      0.312770000000     0.998710000000     0.283950000000     0.0909758  
C93      C      0.452480000000     0.317060000000     0.051760000000    -0.0131862  
C94      C      0.377230000000     0.308480000000     0.046000000000    -0.0412141  
C95      C      0.471310000000     0.364410000000     0.075070000000    -0.0114885  
C96      C      0.396220000000     0.357430000000     0.064770000000     0.0907516  
C97      C      0.646710000000     0.770560000000     0.510250000000    -0.0155183  
C98      C      0.715120000000     0.844780000000     0.518110000000    -0.0436532  
C99      C      0.626270000000     0.782440000000     0.566500000000    -0.00815823 
C100     C      0.694850000000     0.857370000000     0.574840000000     0.0876515  
C101     C      0.686080000000     0.906700000000     0.006900000000    -0.0124201  
C102     C      0.604830000000     0.859920000000     0.009080000000    -0.0399472  
C103     C      0.690970000000     0.885290000000     0.068070000000    -0.0111023  
C104     C      0.606300000000     0.836170000000     0.070960000000     0.090491   
C105     C      0.708040000000     0.727880000000     0.214580000000    -0.0144155  
C106     C      0.778590000000     0.800410000000     0.220360000000    -0.0426519  
C107     C      0.730570000000     0.705450000000     0.249100000000    -0.0120081  
C108     C      0.800090000000     0.778260000000     0.257790000000     0.0915364  
C109     C      0.616940000000     0.955020000000     0.436920000000    -0.0139366  
C110     C      0.546690000000     0.882840000000     0.448540000000    -0.042724   
C111     C      0.620850000000     0.943500000000     0.366710000000    -0.0117478  
C112     C      0.550130000000     0.872070000000     0.377570000000     0.0909846  
C113     C      0.046470000000     0.550400000000     0.746160000000    -0.0146804  
C114     C      0.963210000000     0.499850000000     0.744710000000    -0.0416054  
C115     C      0.043110000000     0.568470000000     0.680270000000    -0.0097299  
C116     C      0.961330000000     0.521620000000     0.681270000000     0.0909807  
C117     C      0.054250000000     0.518420000000     0.201570000000    -0.0148011  
C118     C      0.972700000000     0.460220000000     0.199290000000    -0.0445387  
C119     C      0.062320000000     0.488530000000     0.247630000000    -0.0109869  
C120     C      0.983190000000     0.431620000000     0.243530000000     0.0940196  
C121     C      0.965150000000     0.624660000000     0.037250000000    -0.0148128  
C122     C      0.894530000000     0.552440000000     0.035130000000    -0.0424949  
C123     C      0.956840000000     0.630700000000     0.108500000000    -0.0118504  
C124     C      0.887940000000     0.557160000000     0.107330000000     0.091107   
C125     C      0.390270000000     0.177590000000     0.871840000000    -0.0138986  
C126     C      0.306150000000     0.135470000000     0.866470000000    -0.044489   
C127     C      0.387770000000     0.142090000000     0.917800000000    -0.0104849  
C128     C      0.306300000000     0.102200000000     0.914670000000     0.0938661  
C129     C      0.317640000000     0.184070000000     0.360770000000    -0.0145725  
C130     C      0.401340000000     0.219340000000     0.359880000000    -0.0417769  
C131     C      0.321790000000     0.211330000000     0.420830000000    -0.00956547 
C132     C      0.403540000000     0.247880000000     0.417560000000     0.0914821  
C133     C      0.468250000000     0.108790000000     0.564860000000    -0.0135774  
C134     C      0.395950000000     0.037540000000     0.572040000000    -0.0420291  
C135     C      0.453280000000     0.127970000000     0.618250000000    -0.0111664  
C136     C      0.379090000000     0.059520000000     0.620220000000     0.0905732  
C137     C      0.121720000000     0.471270000000     0.937100000000    -0.0132964  
C138     C      0.051000000000     0.399490000000     0.934280000000    -0.041393   
C139     C      0.135460000000     0.460730000000     0.872780000000    -0.0114223  
C140     C      0.065530000000     0.386830000000     0.871500000000     0.0905005  
C141     C      0.236240000000     0.269620000000     0.684460000000    -0.0116822  
C142     C      0.306390000000     0.341870000000     0.689120000000    -0.0395677  
C143     C      0.259150000000     0.245990000000     0.710310000000    -0.0104689  
C144     C      0.332370000000     0.317570000000     0.704080000000     0.0896828  
C145     C      0.461720000000     0.507460000000     0.779330000000    -0.0148136  
C146     C      0.508080000000     0.469980000000     0.775720000000    -0.0421095  
C147     C      0.435330000000     0.479310000000     0.721530000000    -0.00860626 
C148     C      0.477970000000     0.440070000000     0.721660000000     0.091484   
C149     C      0.534990000000     0.584500000000     0.288430000000    -0.0127612  
C150     C      0.580110000000     0.548140000000     0.294520000000    -0.0380843  
C151     C      0.511700000000     0.558480000000     0.227640000000    -0.011108   
C152     C      0.561140000000     0.523420000000     0.230930000000     0.0900258  
C153     C      0.883630000000     0.155600000000     0.885320000000    -0.0146897  
C154     C      0.855640000000     0.210670000000     0.886410000000    -0.0441126  
C155     C      0.907360000000     0.176120000000     0.821500000000    -0.0100492  
C156     C      0.880980000000     0.229850000000     0.823620000000     0.0933422  
C157     C      0.831770000000     0.118030000000     0.339730000000    -0.0148287  
C158     C      0.802370000000     0.171420000000     0.338070000000    -0.0422046  
C159     C      0.796960000000     0.090740000000     0.390410000000    -0.00817191 
C160     C      0.767840000000     0.142380000000     0.389090000000     0.0900516  
C161     C      0.147720000000     0.395210000000     0.504560000000    -0.0136946  
C162     C      0.130530000000     0.315200000000     0.512270000000    -0.0403463  
C163     C      0.166970000000     0.401600000000     0.572510000000    -0.00860621 
C164     C      0.115500000000     0.317730000000     0.581330000000     0.0909534  
C165     C      0.195730000000     0.321060000000     0.064540000000    -0.014803   
C166     C      0.231900000000     0.405130000000     0.064930000000    -0.0422761  
C167     C      0.224390000000     0.325000000000     0.006060000000    -0.00958143 
C168     C      0.262450000000     0.406460000000     0.010830000000     0.0916197  
C169     C      0.006520000000     0.229830000000     0.170360000000    -0.0127468  
C170     C      0.997610000000     0.296460000000     0.160880000000    -0.0428554  
C171     C      0.027850000000     0.245770000000     0.236310000000    -0.0112782  
C172     C      0.022610000000     0.314180000000     0.225150000000     0.0917753  
C173     C      0.354060000000     0.401780000000     0.413290000000    -0.0140899  
C174     C      0.350730000000     0.470600000000     0.434990000000    -0.0426579  
C175     C      0.333570000000     0.398530000000     0.346370000000    -0.0117973  
C176     C      0.333840000000     0.469170000000     0.366310000000     0.0917586  
C177     C      0.495460000000     0.954960000000     0.791250000000    -0.0139978  
C178     C      0.535420000000     0.038550000000     0.791910000000    -0.0420212  
C179     C      0.529100000000     0.956840000000     0.742490000000    -0.00853017 
C180     C      0.569380000000     0.038830000000     0.744280000000     0.0906763  
C181     C      0.470310000000     0.953890000000     0.251450000000    -0.0140257  
C182     C      0.505720000000     0.037680000000     0.249430000000    -0.0442094  
C183     C      0.439710000000     0.952350000000     0.305600000000    -0.0104254  
C184     C      0.474410000000     0.033920000000     0.303660000000     0.0939029  
C185     C      0.657330000000     0.097790000000     0.057540000000    -0.012769   
C186     C      0.649680000000     0.022430000000     0.071560000000    -0.0414814  
C187     C      0.701610000000     0.113480000000     0.025850000000    -0.00958965 
C188     C      0.698080000000     0.041690000000     0.048850000000     0.0907021  
C189     C      0.186520000000     0.885680000000     0.563020000000    -0.0137651  
C190     C      0.233780000000     0.848760000000     0.561030000000    -0.0442176  
C191     C      0.213380000000     0.912970000000     0.621130000000    -0.0110404  
C192     C      0.258010000000     0.876130000000     0.620750000000     0.0930427  
C193     C      0.112960000000     0.817220000000     0.054780000000    -0.0115262  
C194     C      0.145570000000     0.768580000000     0.049460000000    -0.0401261  
C195     C      0.142720000000     0.842770000000     0.111400000000    -0.0121161  
C196     C      0.176680000000     0.792890000000     0.106560000000     0.090121   
C197     C      0.325240000000     0.884430000000     0.922890000000    -0.0136143  
C198     C      0.322580000000     0.955440000000     0.924540000000    -0.0433569  
C199     C      0.340820000000     0.892780000000     0.992770000000    -0.0101825  
C200     C      0.342010000000     0.964160000000     0.993330000000     0.091762   
C201     C      0.842230000000     0.711580000000     0.957340000000    -0.0137615  
C202     C      0.789850000000     0.628220000000     0.961710000000    -0.0438977  
C203     C      0.814500000000     0.714030000000     0.901790000000    -0.0109581  
C204     C      0.764310000000     0.633180000000     0.905340000000     0.0927808  
C205     C      0.910190000000     0.707500000000     0.471950000000    -0.0119231  
C206     C      0.872560000000     0.625860000000     0.475120000000    -0.0400498  
C207     C      0.890240000000     0.706880000000     0.406160000000    -0.011606   
C208     C      0.849690000000     0.621840000000     0.409970000000     0.0906815  
C209     C      0.681690000000     0.566470000000     0.628410000000    -0.0136905  
C210     C      0.689550000000     0.641650000000     0.620440000000    -0.0421168  
C211     C      0.653270000000     0.552200000000     0.567780000000    -0.0114232  
C212     C      0.657950000000     0.626050000000     0.562160000000     0.0907544  
C213     C      0.030080000000     0.795100000000     0.745490000000    -0.0127361  
C214     C      0.034990000000     0.726060000000     0.740760000000    -0.0411054  
C215     C      0.984560000000     0.769280000000     0.775890000000    -0.0109412  
C216     C      0.987260000000     0.699080000000     0.766700000000     0.0904486  
Cu1      Cu     0.843490000000     0.706170000000     0.676900000000     0.843345   
Cu2      Cu     0.831430000000     0.631280000000     0.696610000000     0.836161   
Cu3      Cu     0.173160000000     0.872840000000     0.842910000000     0.842993   
Cu4      Cu     0.183190000000     0.808410000000     0.826370000000     0.84206    
Cu5      Cu     0.504200000000     0.032830000000     0.018630000000     0.84697    
Cu6      Cu     0.494920000000     0.958060000000     0.023780000000     0.847214   
Cu7      Cu     0.182090000000     0.395240000000     0.281790000000     0.839718   
Cu8      Cu     0.178740000000     0.323500000000     0.294590000000     0.841462   
Cu9      Cu     0.843130000000     0.199820000000     0.114190000000     0.848915   
Cu10     Cu     0.855070000000     0.135950000000     0.111350000000     0.837759   
Cu11     Cu     0.498230000000     0.543360000000     0.514370000000     0.838991   
Cu12     Cu     0.505630000000     0.478070000000     0.491620000000     0.841643   
Cu13     Cu     0.159250000000     0.326110000000     0.801380000000     0.844128   
Cu14     Cu     0.220140000000     0.402140000000     0.783040000000     0.840319   
Cu15     Cu     0.318250000000     0.159670000000     0.636910000000     0.843751   
Cu16     Cu     0.393920000000     0.221650000000     0.652750000000     0.84013    
Cu17     Cu     0.971750000000     0.478160000000     0.970510000000     0.845549   
Cu18     Cu     0.042930000000     0.547980000000     0.977290000000     0.837738   
Cu19     Cu     0.629070000000     0.800090000000     0.288610000000     0.833831   
Cu20     Cu     0.698890000000     0.871050000000     0.294380000000     0.841275   
Cu21     Cu     0.810180000000     0.631630000000     0.189570000000     0.836636   
Cu22     Cu     0.878340000000     0.703580000000     0.178210000000     0.837317   
Cu23     Cu     0.474280000000     0.958870000000     0.531430000000     0.841881   
Cu24     Cu     0.541320000000     0.030580000000     0.510190000000     0.8442     
Cu25     Cu     0.390620000000     0.171580000000     0.142590000000     0.842536   
Cu26     Cu     0.315950000000     0.162000000000     0.133060000000     0.843672   
Cu27     Cu     0.544720000000     0.511470000000     0.997380000000     0.838154   
Cu28     Cu     0.476720000000     0.515460000000     0.009640000000     0.84227    
Cu29     Cu     0.219060000000     0.838520000000     0.330720000000     0.836322   
Cu30     Cu     0.154830000000     0.849360000000     0.340470000000     0.844445   
Cu31     Cu     0.049340000000     0.503800000000     0.477010000000     0.83437    
Cu32     Cu     0.975730000000     0.493350000000     0.451410000000     0.848225   
Cu33     Cu     0.860850000000     0.144270000000     0.598220000000     0.824757   
Cu34     Cu     0.801600000000     0.160800000000     0.623260000000     0.857323   
Cu35     Cu     0.687530000000     0.842070000000     0.801080000000     0.843577   
Cu36     Cu     0.609790000000     0.822590000000     0.785240000000     0.852156   
H1       H      0.708090000000     0.955070000000     0.595650000000     0.0433463  
H2       H      0.786240000000     0.999840000000     0.620150000000     0.0368841  
H3       H      0.663010000000     0.980060000000     0.645710000000     0.0226056  
H4       H      0.705860000000     0.045190000000     0.713600000000     0.0558937  
H5       H      0.723830000000     0.918390000000     0.631120000000     0.104172   
H6       H      0.776170000000     0.985550000000     0.704350000000     0.0425474  
H7       H      0.722860000000     0.015180000000     0.764800000000     0.0475414  
H8       H      0.607600000000     0.937450000000     0.722920000000     0.0976787  
H9       H      0.644270000000     0.960410000000     0.786900000000     0.0928486  
H10      H      0.897530000000     0.323710000000     0.616900000000     0.0366263  
H11      H      0.890800000000     0.366420000000     0.528110000000     0.0397133  
H12      H      0.970500000000     0.285480000000     0.564730000000     0.0206093  
H13      H      0.987830000000     0.358420000000     0.594300000000     0.0438399  
H14      H      0.851750000000     0.291100000000     0.564450000000     0.0399773  
H15      H      0.894980000000     0.331220000000     0.469120000000     0.0370211  
H16      H      0.011650000000     0.363830000000     0.516370000000     0.0513946  
H17      H      0.942790000000     0.253000000000     0.464370000000     0.0939225  
H18      H      0.935090000000     0.295240000000     0.438710000000     0.090603   
H19      H      0.129890000000     0.691310000000     0.466460000000     0.0384439  
H20      H      0.135180000000     0.632830000000     0.407770000000     0.0421098  
H21      H      0.054600000000     0.690330000000     0.444250000000     0.0191888  
H22      H      0.008180000000     0.623320000000     0.385620000000     0.0536526  
H23      H      0.171590000000     0.713010000000     0.405440000000     0.0419674  
H24      H      0.123980000000     0.651280000000     0.332860000000     0.0380878  
H25      H      0.044300000000     0.641270000000     0.316970000000     0.0467328  
H26      H      0.040440000000     0.735930000000     0.380600000000     0.0958929  
H27      H      0.052960000000     0.718660000000     0.308380000000     0.0945981  
H28      H      0.563170000000     0.695240000000     0.977880000000     0.0386084  
H29      H      0.538320000000     0.696280000000     0.865740000000     0.0429505  
H30      H      0.636760000000     0.701080000000     0.985190000000     0.0206085  
H31      H      0.671480000000     0.719580000000     0.879990000000     0.0545459  
H32      H      0.515290000000     0.644450000000     0.954740000000     0.0426464  
H33      H      0.546940000000     0.651240000000     0.844640000000     0.0402833  
H34      H      0.630780000000     0.667390000000     0.847220000000     0.0467975  
H35      H      0.647660000000     0.640400000000     0.011910000000     0.0957596  
H36      H      0.646840000000     0.627560000000     0.930130000000     0.0966006  
H37      H      0.257000000000     0.029430000000     0.313420000000     0.0379886  
H38      H      0.232980000000     0.033830000000     0.201660000000     0.0425387  
H39      H      0.326750000000     0.027030000000     0.318290000000     0.020076   
H40      H      0.360380000000     0.042130000000     0.212010000000     0.0543334  
H41      H      0.206050000000     0.981710000000     0.290530000000     0.0423152  
H42      H      0.235960000000     0.985670000000     0.179730000000     0.0397058  
H43      H      0.315190000000     0.992240000000     0.179920000000     0.0465396  
H44      H      0.330380000000     0.961980000000     0.343810000000     0.0975109  
H45      H      0.327030000000     0.948450000000     0.261850000000     0.0960493  
H46      H      0.470930000000     0.364180000000     0.128780000000     0.0385047  
H47      H      0.472390000000     0.303340000000     0.072730000000     0.0423438  
H48      H      0.391010000000     0.358320000000     0.117670000000     0.0200648  
H49      H      0.342990000000     0.289190000000     0.065070000000     0.0544073  
H50      H      0.506470000000     0.383390000000     0.059900000000     0.0420329  
H51      H      0.455980000000     0.317480000000     0.998340000000     0.039011   
H52      H      0.375130000000     0.305730000000     0.992430000000     0.0479186  
H53      H      0.369390000000     0.399040000000     0.056480000000     0.0964429  
H54      H      0.380450000000     0.382110000000     0.982690000000     0.0962133  
H55      H      0.606050000000     0.796230000000     0.546800000000     0.0402534  
H56      H      0.620020000000     0.747030000000     0.477690000000     0.0425723  
H57      H      0.676480000000     0.872330000000     0.552090000000     0.0197453  
H58      H      0.738070000000     0.874920000000     0.490480000000     0.0489897  
H59      H      0.604000000000     0.751830000000     0.593950000000     0.0356198  
H60      H      0.663740000000     0.753440000000     0.530140000000     0.0416     
H61      H      0.734660000000     0.830410000000     0.538410000000     0.0470036  
H62      H      0.738530000000     0.879330000000     0.656070000000     0.105123   
H63      H      0.759100000000     0.908530000000     0.590780000000     0.076712   
H64      H      0.701890000000     0.861520000000     0.053990000000     0.0410249  
H65      H      0.716210000000     0.918800000000     0.976630000000     0.0406815  
H66      H      0.601790000000     0.803480000000     0.056340000000     0.021812   
H67      H      0.575150000000     0.837110000000     0.980430000000     0.0523842  
H68      H      0.718070000000     0.911520000000     0.097330000000     0.0425146  
H69      H      0.683360000000     0.935920000000     0.021270000000     0.0387383  
H70      H      0.601610000000     0.888990000000     0.022860000000     0.0476121  
H71      H      0.555990000000     0.799330000000     0.137350000000     0.0938843  
H72      H      0.577150000000     0.856060000000     0.142000000000     0.0914789  
H73      H      0.723510000000     0.704320000000     0.301650000000     0.0391403  
H74      H      0.672440000000     0.710370000000     0.227680000000     0.0431184  
H75      H      0.792950000000     0.779930000000     0.309800000000     0.020815   
H76      H      0.793750000000     0.835520000000     0.235640000000     0.0545119  
H77      H      0.715200000000     0.670770000000     0.231740000000     0.0422541  
H78      H      0.710360000000     0.724090000000     0.161660000000     0.0395822  
H79      H      0.785610000000     0.800030000000     0.168040000000     0.0466318  
H80      H      0.864190000000     0.792670000000     0.280550000000     0.0946133  
H81      H      0.857810000000     0.806510000000     0.201240000000     0.0955068  
H82      H      0.605090000000     0.957600000000     0.335380000000     0.0383174  
H83      H      0.632360000000     0.991460000000     0.441710000000     0.0440954  
H84      H      0.533020000000     0.885880000000     0.348500000000     0.0191669  
H85      H      0.511300000000     0.866940000000     0.462510000000     0.0545232  
H86      H      0.656340000000     0.960100000000     0.353300000000     0.04282    
H87      H      0.636010000000     0.944400000000     0.467770000000     0.0400528  
H88      H      0.562570000000     0.868570000000     0.479300000000     0.0471815  
H89      H      0.522650000000     0.815590000000     0.319630000000     0.094352   
H90      H      0.538960000000     0.808150000000     0.396700000000     0.0951139  
H91      H      0.041200000000     0.598900000000     0.688900000000     0.0370714  
H92      H      0.072770000000     0.577900000000     0.774780000000     0.042752   
H93      H      0.958660000000     0.551140000000     0.694270000000     0.0195169  
H94      H      0.933380000000     0.491910000000     0.773840000000     0.052259   
H95      H      0.073870000000     0.578510000000     0.652340000000     0.040487   
H96      H      0.057320000000     0.525790000000     0.738190000000     0.0412366  
H97      H      0.962240000000     0.468200000000     0.733660000000     0.0502277  
H98      H      0.914010000000     0.506790000000     0.609580000000     0.0956386  
H99      H      0.922980000000     0.463150000000     0.628830000000     0.093833   
H100     H      0.070870000000     0.467160000000     0.218320000000     0.0366888  
H101     H      0.083540000000     0.536320000000     0.169690000000     0.0416679  
H102     H      0.992630000000     0.412030000000     0.211600000000     0.0233062  
H103     H      0.945150000000     0.438420000000     0.166490000000     0.0546037  
H104     H      0.090810000000     0.509430000000     0.279650000000     0.0387403  
H105     H      0.051160000000     0.543400000000     0.230890000000     0.0413311  
H106     H      0.961160000000     0.478890000000     0.229270000000     0.0517065  
H107     H      0.953610000000     0.385050000000     0.316830000000     0.0913055  
H108     H      0.926390000000     0.413880000000     0.299690000000     0.0949931  
H109     H      0.974420000000     0.618050000000     0.138780000000     0.0380746  
H110     H      0.001290000000     0.641240000000     0.028300000000     0.0442322  
H111     H      0.905730000000     0.543030000000     0.133960000000     0.0209158  
H112     H      0.878820000000     0.516850000000     0.022320000000     0.0545988  
H113     H      0.971910000000     0.666560000000     0.118900000000     0.0427372  
H114     H      0.951600000000     0.641420000000     0.006990000000     0.040644   
H115     H      0.877660000000     0.566870000000     0.006970000000     0.0458462  
H116     H      0.835980000000     0.529830000000     0.173620000000     0.0943494  
H117     H      0.821110000000     0.539070000000     0.096540000000     0.0944073  
H118     H      0.387410000000     0.115160000000     0.888660000000     0.0361694  
H119     H      0.420090000000     0.189190000000     0.840990000000     0.041447   
H120     H      0.308140000000     0.076440000000     0.885370000000     0.0200741  
H121     H      0.278240000000     0.117780000000     0.832160000000     0.0532042  
H122     H      0.417830000000     0.156610000000     0.948620000000     0.0411573  
H123     H      0.394250000000     0.206150000000     0.900830000000     0.0422264  
H124     H      0.300350000000     0.159670000000     0.893310000000     0.0489873  
H125     H      0.267530000000     0.060890000000     0.989140000000     0.0941815  
H126     H      0.254610000000     0.101340000000     0.968240000000     0.094972   
H127     H      0.323010000000     0.242280000000     0.404600000000     0.0353143  
H128     H      0.290200000000     0.181540000000     0.330460000000     0.0423351  
H129     H      0.404650000000     0.278060000000     0.397680000000     0.0183322  
H130     H      0.430210000000     0.239390000000     0.327970000000     0.0529475  
H131     H      0.291650000000     0.193080000000     0.451030000000     0.0403206  
H132     H      0.308130000000     0.150000000000     0.376450000000     0.0408822  
H133     H      0.404020000000     0.190690000000     0.377600000000     0.0499024  
H134     H      0.451270000000     0.287180000000     0.485380000000     0.0940904  
H135     H      0.445180000000     0.234690000000     0.475000000000     0.094266   
H136     H      0.462530000000     0.119770000000     0.665550000000     0.0373908  
H137     H      0.504670000000     0.123620000000     0.568770000000     0.0406679  
H138     H      0.384520000000     0.050170000000     0.669370000000     0.0185772  
H139     H      0.381480000000     0.002080000000     0.585150000000     0.054366   
H140     H      0.471960000000     0.164520000000     0.612980000000     0.0413319  
H141     H      0.460890000000     0.118650000000     0.517440000000     0.038212   
H142     H      0.383660000000     0.038720000000     0.522930000000     0.0470309  
H143     H      0.316370000000     0.044880000000     0.651510000000     0.0965554  
H144     H      0.323980000000     0.050760000000     0.567630000000     0.0967072  
H145     H      0.124410000000     0.474540000000     0.833250000000     0.0395758  
H146     H      0.137010000000     0.507690000000     0.941840000000     0.0423893  
H147     H      0.051040000000     0.396460000000     0.831100000000     0.0200661  
H148     H      0.014410000000     0.383840000000     0.934790000000     0.0556009  
H149     H      0.172150000000     0.478090000000     0.871710000000     0.0409808  
H150     H      0.134900000000     0.459530000000     0.976600000000     0.0373428  
H151     H      0.060650000000     0.385960000000     0.975880000000     0.046132   
H152     H      0.046490000000     0.327510000000     0.822980000000     0.0954587  
H153     H      0.059440000000     0.327270000000     0.904840000000     0.0969864  
H154     H      0.257630000000     0.245850000000     0.763980000000     0.0401859  
H155     H      0.200840000000     0.251120000000     0.698610000000     0.0421338  
H156     H      0.339850000000     0.321540000000     0.756710000000     0.0193744  
H157     H      0.322910000000     0.374600000000     0.713570000000     0.0520984  
H158     H      0.240120000000     0.211020000000     0.694210000000     0.0428876  
H159     H      0.237710000000     0.269650000000     0.630790000000     0.0386745  
H160     H      0.307660000000     0.347990000000     0.636220000000     0.0486594  
H161     H      0.399240000000     0.337840000000     0.692410000000     0.0955658  
H162     H      0.370260000000     0.329150000000     0.620280000000     0.0955089  
H163     H      0.405670000000     0.449410000000     0.740490000000     0.0367937  
H164     H      0.439060000000     0.512230000000     0.811670000000     0.0419749  
H165     H      0.449250000000     0.411640000000     0.745420000000     0.0192564  
H166     H      0.518330000000     0.450550000000     0.806570000000     0.0518009  
H167     H      0.423410000000     0.497830000000     0.691900000000     0.0398787  
H168     H      0.486640000000     0.540660000000     0.761110000000     0.0412175  
H169     H      0.538330000000     0.497840000000     0.754070000000     0.0486185  
H170     H      0.480120000000     0.398700000000     0.651040000000     0.0945455  
H171     H      0.530070000000     0.447950000000     0.662030000000     0.0938469  
H172     H      0.479310000000     0.529780000000     0.241760000000     0.0427359  
H173     H      0.512300000000     0.592230000000     0.315760000000     0.0400115  
H174     H      0.536460000000     0.488690000000     0.243740000000     0.0214273  
H175     H      0.589910000000     0.528700000000     0.326120000000     0.051349   
H176     H      0.504870000000     0.580180000000     0.196080000000     0.0397429  
H177     H      0.564580000000     0.616070000000     0.273790000000     0.0369076  
H178     H      0.610630000000     0.579990000000     0.283660000000     0.0444626  
H179     H      0.586120000000     0.495200000000     0.166360000000     0.0940332  
H180     H      0.616990000000     0.552980000000     0.171070000000     0.0956189  
H181     H      0.941500000000     0.202940000000     0.832620000000     0.0361459  
H182     H      0.904840000000     0.146750000000     0.914430000000     0.0414626  
H183     H      0.915130000000     0.255270000000     0.837850000000     0.0201883  
H184     H      0.857750000000     0.238250000000     0.915960000000     0.0544004  
H185     H      0.909640000000     0.150440000000     0.792750000000     0.0404369  
H186     H      0.852500000000     0.124430000000     0.874370000000     0.0419785  
H187     H      0.820190000000     0.188030000000     0.875020000000     0.04934    
H188     H      0.878480000000     0.263750000000     0.742250000000     0.0931309  
H189     H      0.828090000000     0.233880000000     0.782050000000     0.0953738  
H190     H      0.766840000000     0.065540000000     0.364820000000     0.0348819  
H191     H      0.837050000000     0.095180000000     0.308570000000     0.042232   
H192     H      0.738380000000     0.117040000000     0.362330000000     0.0187846  
H193     H      0.787210000000     0.185280000000     0.305090000000     0.0530957  
H194     H      0.808880000000     0.072710000000     0.421160000000     0.0387808  
H195     H      0.863450000000     0.139820000000     0.364960000000     0.042812   
H196     H      0.830740000000     0.199590000000     0.362760000000     0.0468142  
H197     H      0.728160000000     0.149240000000     0.457620000000     0.0947765  
H198     H      0.781040000000     0.195140000000     0.451060000000     0.0934237  
H199     H      0.202880000000     0.413170000000     0.568520000000     0.0431606  
H200     H      0.169060000000     0.425790000000     0.476580000000     0.0403557  
H201     H      0.115900000000     0.290400000000     0.608510000000     0.0220545  
H202     H      0.158640000000     0.308820000000     0.515550000000     0.0494282  
H203     H      0.164020000000     0.428240000000     0.597350000000     0.0358901  
H204     H      0.114530000000     0.391960000000     0.506280000000     0.037002   
H205     H      0.103650000000     0.286320000000     0.486450000000     0.0508731  
H206     H      0.058360000000     0.303740000000     0.629720000000     0.0903176  
H207     H      0.066890000000     0.334560000000     0.561910000000     0.0897516  
H208     H      0.254610000000     0.325540000000     0.024260000000     0.037162   
H209     H      0.192360000000     0.293670000000     0.095830000000     0.0425711  
H210     H      0.290530000000     0.405310000000     0.034360000000     0.0182549  
H211     H      0.250970000000     0.433900000000     0.097490000000     0.0512397  
H212     H      0.206580000000     0.295200000000     0.975040000000     0.0406552  
H213     H      0.162090000000     0.311500000000     0.046810000000     0.0410879  
H214     H      0.204380000000     0.408280000000     0.043630000000     0.0486318  
H215     H      0.303710000000     0.450950000000     0.941070000000     0.0954319  
H216     H      0.255990000000     0.453840000000     0.956570000000     0.0942708  
H217     H      0.001340000000     0.232470000000     0.273520000000     0.0390699  
H218     H      0.989040000000     0.193130000000     0.169480000000     0.0422711  
H219     H      0.996990000000     0.302620000000     0.263670000000     0.0203924  
H220     H      0.973010000000     0.307560000000     0.155400000000     0.0559001  
H221     H      0.049280000000     0.231330000000     0.245950000000     0.0432373  
H222     H      0.033030000000     0.242240000000     0.133200000000     0.0394135  
H223     H      0.021670000000     0.311190000000     0.120540000000     0.0466365  
H224     H      0.057070000000     0.375580000000     0.270690000000     0.0990803  
H225     H      0.070120000000     0.376090000000     0.188840000000     0.0965807  
H226     H      0.361040000000     0.414240000000     0.310890000000     0.0386493  
H227     H      0.376550000000     0.387940000000     0.410700000000     0.0431031  
H228     H      0.363400000000     0.487030000000     0.334720000000     0.0201118  
H229     H      0.369880000000     0.505580000000     0.451120000000     0.0552267  
H230     H      0.313430000000     0.363140000000     0.332680000000     0.0435429  
H231     H      0.326920000000     0.380970000000     0.447340000000     0.0399817  
H232     H      0.321850000000     0.453120000000     0.467830000000     0.0471746  
H233     H      0.303820000000     0.499620000000     0.317500000000     0.0956465  
H234     H      0.281130000000     0.478500000000     0.393860000000     0.0947977  
H235     H      0.556190000000     0.956660000000     0.770260000000     0.0386348  
H236     H      0.484470000000     0.925490000000     0.822690000000     0.042295   
H237     H      0.595680000000     0.038050000000     0.773680000000     0.0216084  
H238     H      0.552400000000     0.067720000000     0.824350000000     0.0526421  
H239     H      0.513780000000     0.926800000000     0.711530000000     0.0393849  
H240     H      0.466040000000     0.950540000000     0.764180000000     0.0428935  
H241     H      0.509690000000     0.041480000000     0.764300000000     0.0479049  
H242     H      0.615360000000     0.082100000000     0.677830000000     0.0963718  
H243     H      0.566660000000     0.084490000000     0.681120000000     0.0942337  
H244     H      0.409220000000     0.949130000000     0.283490000000     0.0371217  
H245     H      0.451790000000     0.924090000000     0.220630000000     0.0414357  
H246     H      0.443820000000     0.029400000000     0.279920000000     0.0222645  
H247     H      0.511980000000     0.065850000000     0.217580000000     0.0538539  
H248     H      0.430170000000     0.922710000000     0.336110000000     0.0403513  
H249     H      0.498630000000     0.952500000000     0.273440000000     0.0413341  
H250     H      0.537890000000     0.045150000000     0.270940000000     0.0497302  
H251     H      0.473020000000     0.069970000000     0.382930000000     0.0926676  
H252     H      0.525830000000     0.087520000000     0.353650000000     0.0951029  
H253     H      0.696050000000     0.104960000000     0.973620000000     0.0374811  
H254     H      0.641960000000     0.115760000000     0.035080000000     0.0431517  
H255     H      0.696830000000     0.033520000000     0.996640000000     0.0177312  
H256     H      0.630030000000     0.987810000000     0.053920000000     0.0533301  
H257     H      0.721250000000     0.150110000000     0.029040000000     0.0420791  
H258     H      0.662560000000     0.106580000000     0.109670000000     0.0420123  
H259     H      0.648840000000     0.021060000000     0.125240000000     0.0482112  
H260     H      0.744490000000     0.021100000000     0.059200000000     0.0946132  
H261     H      0.725040000000     0.030170000000     0.132090000000     0.0961503  
H262     H      0.242450000000     0.943810000000     0.603110000000     0.0383757  
H263     H      0.178300000000     0.906770000000     0.532420000000     0.0409215  
H264     H      0.286040000000     0.907650000000     0.602250000000     0.0202764  
H265     H      0.257900000000     0.845640000000     0.529680000000     0.0532763  
H266     H      0.192690000000     0.922430000000     0.650280000000     0.041304   
H267     H      0.154950000000     0.857450000000     0.580730000000     0.0425195  
H268     H      0.208740000000     0.814870000000     0.576670000000     0.0486356  
H269     H      0.291320000000     0.872000000000     0.701560000000     0.0939828  
H270     H      0.254790000000     0.821030000000     0.667440000000     0.0953486  
H271     H      0.171220000000     0.873570000000     0.092210000000     0.0401123  
H272     H      0.104550000000     0.839110000000     0.026590000000     0.0410277  
H273     H      0.209400000000     0.817290000000     0.086060000000     0.0205816  
H274     H      0.161420000000     0.755010000000     0.017350000000     0.0529302  
H275     H      0.124080000000     0.853030000000     0.143780000000     0.0412992  
H276     H      0.081670000000     0.789730000000     0.074640000000     0.0365267  
H277     H      0.114560000000     0.740270000000     0.068650000000     0.0463997  
H278     H      0.212670000000     0.774090000000     0.166390000000     0.0945474  
H279     H      0.155750000000     0.743680000000     0.177640000000     0.091328   
H280     H      0.311290000000     0.878940000000     0.024740000000     0.0371538  
H281     H      0.305410000000     0.848160000000     0.915060000000     0.0427034  
H282     H      0.313280000000     0.949090000000     0.026880000000     0.0201055  
H283     H      0.299890000000     0.968980000000     0.920020000000     0.0547964  
H284     H      0.358660000000     0.874680000000     0.003650000000     0.0423465  
H285     H      0.354640000000     0.897670000000     0.890790000000     0.0410815  
H286     H      0.350050000000     0.973480000000     0.889640000000     0.0471626  
H287     H      0.379740000000     0.017650000000     0.053950000000     0.0978687  
H288     H      0.390220000000     0.029720000000     0.971730000000     0.0972989  
H289     H      0.788040000000     0.719140000000     0.922570000000     0.0379953  
H290     H      0.854020000000     0.741640000000     0.987790000000     0.0404632  
H291     H      0.739050000000     0.639750000000     0.927240000000     0.0195307  
H292     H      0.766020000000     0.601870000000     0.994530000000     0.0518526  
H293     H      0.835910000000     0.743030000000     0.870940000000     0.0409188  
H294     H      0.871740000000     0.711860000000     0.936700000000     0.041873   
H295     H      0.812460000000     0.617120000000     0.942630000000     0.0479161  
H296     H      0.725920000000     0.596800000000     0.826990000000     0.0919905  
H297     H      0.759910000000     0.577940000000     0.857380000000     0.0948155  
H298     H      0.863260000000     0.714560000000     0.413450000000     0.0397552  
H299     H      0.916550000000     0.737660000000     0.498870000000     0.0408733  
H300     H      0.815130000000     0.613600000000     0.420360000000     0.0231058  
H301     H      0.851440000000     0.596040000000     0.504710000000     0.0524908  
H302     H      0.915970000000     0.734210000000     0.376590000000     0.0404076  
H303     H      0.942640000000     0.709610000000     0.463750000000     0.0357999  
H304     H      0.904500000000     0.626950000000     0.466230000000     0.04755    
H305     H      0.820430000000     0.568650000000     0.345620000000     0.093817   
H306     H      0.877650000000     0.595510000000     0.347280000000     0.0904029  
H307     H      0.675130000000     0.559220000000     0.525120000000     0.0394675  
H308     H      0.700140000000     0.548220000000     0.630520000000     0.0420162  
H309     H      0.679160000000     0.635740000000     0.518260000000     0.0198313  
H310     H      0.714040000000     0.677360000000     0.614500000000     0.055611   
H311     H      0.630940000000     0.515830000000     0.570540000000     0.0407544  
H312     H      0.659610000000     0.556780000000     0.671280000000     0.0373348  
H313     H      0.670200000000     0.638180000000     0.664870000000     0.0470345  
H314     H      0.619460000000     0.648410000000     0.516330000000     0.0955112  
H315     H      0.611660000000     0.641560000000     0.600120000000     0.0970614  
H316     H      0.988730000000     0.770180000000     0.829230000000     0.0382359  
H317     H      0.046370000000     0.829780000000     0.763020000000     0.0426418  
H318     H      0.989730000000     0.696320000000     0.819920000000     0.0205365  
H319     H      0.054260000000     0.710580000000     0.757940000000     0.0550351  
H320     H      0.965740000000     0.786390000000     0.764930000000     0.0420534  
H321     H      0.025980000000     0.795700000000     0.692300000000     0.0396902  
H322     H      0.034010000000     0.724320000000     0.687100000000     0.0473448  
H323     H      0.940380000000     0.631750000000     0.766820000000     0.0974222  
H324     H      0.958830000000     0.654350000000     0.689940000000     0.0955697  
N1       N      0.685700000000     0.940790000000     0.691540000000    -0.17726    
N2       N      0.752210000000     0.027500000000     0.672320000000    -0.163346   
N3       N      0.636690000000     0.964750000000     0.739550000000    -0.197962   
N4       N      0.907090000000     0.279790000000     0.557740000000    -0.181159   
N5       N      0.954440000000     0.371320000000     0.520080000000    -0.163745   
N6       N      0.954250000000     0.286890000000     0.467860000000    -0.194586   
N7       N      0.111800000000     0.715740000000     0.385430000000    -0.179125   
N8       N      0.069350000000     0.623030000000     0.396310000000    -0.164217   
N9       N      0.040590000000     0.710080000000     0.355380000000    -0.196967   
N10      N      0.577160000000     0.643650000000     0.959460000000    -0.17886    
N11      N      0.606310000000     0.710570000000     0.865550000000    -0.163428   
N12      N      0.651980000000     0.651740000000     0.964270000000    -0.197487   
N13      N      0.263910000000     0.973550000000     0.293350000000    -0.179209   
N14      N      0.298490000000     0.041180000000     0.200750000000    -0.163857   
N15      N      0.335040000000     0.973310000000     0.296130000000    -0.197616   
N16      N      0.444650000000     0.383830000000     0.051880000000    -0.177814   
N17      N      0.405490000000     0.291020000000     0.068620000000    -0.162952   
N18      N      0.370450000000     0.373840000000     0.030740000000    -0.197417   
N19      N      0.661460000000     0.815730000000     0.607820000000    -0.179369   
N20      N      0.679370000000     0.811300000000     0.477380000000    -0.162239   
N21      N      0.729660000000     0.892060000000     0.617220000000    -0.236883   
N22      N      0.649410000000     0.861020000000     0.105540000000    -0.17716    
N23      N      0.645850000000     0.875380000000     0.972700000000    -0.16357    
N24      N      0.568960000000     0.829040000000     0.111770000000    -0.198002   
N25      N      0.778970000000     0.730710000000     0.239230000000    -0.178172   
N26      N      0.730460000000     0.775410000000     0.230230000000    -0.162571   
N27      N      0.848130000000     0.803780000000     0.249600000000    -0.197727   
N28      N      0.597550000000     0.894980000000     0.357820000000    -0.178551   
N29      N      0.570310000000     0.931120000000     0.457370000000    -0.162856   
N30      N      0.526180000000     0.824050000000     0.368570000000    -0.197682   
N31      N      0.003110000000     0.536390000000     0.645350000000    -0.178228   
N32      N      0.003980000000     0.528430000000     0.781210000000    -0.161533   
N33      N      0.921480000000     0.490610000000     0.645660000000    -0.198472   
N34      N      0.021580000000     0.460850000000     0.284050000000    -0.180383   
N35      N      0.012980000000     0.492370000000     0.164260000000    -0.162245   
N36      N      0.944490000000     0.400020000000     0.280920000000    -0.198048   
N37      N      0.909030000000     0.605100000000     0.123540000000    -0.17866    
N38      N      0.942150000000     0.577260000000     0.020700000000    -0.162683   
N39      N      0.841010000000     0.530580000000     0.123750000000    -0.19744    
N40      N      0.346570000000     0.124750000000     0.954900000000    -0.18012    
N41      N      0.349310000000     0.160060000000     0.833260000000    -0.163415   
N42      N      0.265120000000     0.079800000000     0.951870000000    -0.198339   
N43      N      0.362700000000     0.222990000000     0.456300000000    -0.179505   
N44      N      0.359410000000     0.202380000000     0.324140000000    -0.162471   
N45      N      0.444540000000     0.261430000000     0.453350000000    -0.198236   
N46      N      0.404940000000     0.108780000000     0.615630000000    -0.178576   
N47      N      0.444540000000     0.060270000000     0.569320000000    -0.164115   
N48      N      0.331430000000     0.040390000000     0.610850000000    -0.197745   
N49      N      0.114680000000     0.412350000000     0.864070000000    -0.178819   
N50      N      0.073290000000     0.447810000000     0.940840000000    -0.163653   
N51      N      0.046090000000     0.338710000000     0.869660000000    -0.197179   
N52      N      0.305950000000     0.269160000000     0.690020000000    -0.178565   
N53      N      0.259770000000     0.315240000000     0.708070000000    -0.164448   
N54      N      0.374100000000     0.339930000000     0.668210000000    -0.196097   
N55      N      0.461970000000     0.465390000000     0.683940000000    -0.178816   
N56      N      0.485230000000     0.488220000000     0.813790000000    -0.163018   
N57      N      0.501420000000     0.422830000000     0.683630000000    -0.198879   
N58      N      0.537650000000     0.541890000000     0.192820000000    -0.178112   
N59      N      0.548630000000     0.558030000000     0.326040000000    -0.164706   
N60      N      0.597370000000     0.523220000000     0.195530000000    -0.197613   
N61      N      0.883480000000     0.194670000000     0.787490000000    -0.179973   
N62      N      0.872500000000     0.185260000000     0.921670000000    -0.162145   
N63      N      0.862430000000     0.252610000000     0.786670000000    -0.198253   
N64      N      0.786090000000     0.119670000000     0.428180000000    -0.179702   
N65      N      0.819070000000     0.146060000000     0.302410000000    -0.162663   
N66      N      0.754440000000     0.169160000000     0.426920000000    -0.198455   
N67      N      0.145630000000     0.360890000000     0.611650000000    -0.17987    
N68      N      0.144820000000     0.355750000000     0.474100000000    -0.161987   
N69      N      0.069860000000     0.308840000000     0.582120000000    -0.194891   
N70      N      0.237440000000     0.366300000000     0.970760000000    -0.179149   
N71      N      0.213060000000     0.363010000000     0.100760000000    -0.162714   
N72      N      0.280560000000     0.448260000000     0.975400000000    -0.198863   
N73      N      0.051290000000     0.294630000000     0.238200000000    -0.178519   
N74      N      0.977310000000     0.247970000000     0.157490000000    -0.163656   
N75      N      0.045790000000     0.362580000000     0.224610000000    -0.197784   
N76      N      0.308360000000     0.422250000000     0.344820000000    -0.17843    
N77      N      0.376560000000     0.447770000000     0.436660000000    -0.16278    
N78      N      0.309410000000     0.493170000000     0.364830000000    -0.197922   
N79      N      0.547120000000     0.997990000000     0.704750000000    -0.178981   
N80      N      0.514000000000     0.996580000000     0.828220000000    -0.163384   
N81      N      0.589850000000     0.079920000000     0.706810000000    -0.19855    
N82      N      0.462840000000     0.993890000000     0.341990000000    -0.180527   
N83      N      0.487440000000     0.995340000000     0.214080000000    -0.163556   
N84      N      0.492490000000     0.074580000000     0.342110000000    -0.198072   
N85      N      0.723010000000     0.090660000000     0.055550000000    -0.179255   
N86      N      0.630190000000     0.049500000000     0.050970000000    -0.163694   
N87      N      0.717690000000     0.019360000000     0.084220000000    -0.197993   
N88      N      0.228310000000     0.886830000000     0.657670000000    -0.179173   
N89      N      0.210600000000     0.868150000000     0.525930000000    -0.162435   
N90      N      0.277130000000     0.854470000000     0.659010000000    -0.198467   
N91      N      0.160060000000     0.817360000000     0.145760000000    -0.178172   
N92      N      0.134680000000     0.798750000000     0.015480000000    -0.163518   
N93      N      0.181580000000     0.760130000000     0.144600000000    -0.197916   
N94      N      0.367550000000     0.940940000000     0.002150000000    -0.179922   
N95      N      0.300670000000     0.907740000000     0.909230000000    -0.163959   
N96      N      0.366720000000     0.011640000000     0.007170000000    -0.196525   
N97      N      0.794590000000     0.672060000000     0.866230000000    -0.179672   
N98      N      0.816850000000     0.670750000000     0.995700000000    -0.162721   
N99      N      0.740450000000     0.592090000000     0.868140000000    -0.199045   
N100     N      0.871620000000     0.663840000000     0.372340000000    -0.177529   
N101     N      0.881420000000     0.666760000000     0.507380000000    -0.163242   
N102     N      0.848770000000     0.585110000000     0.374170000000    -0.198237   
N103     N      0.629360000000     0.576910000000     0.561460000000    -0.178511   
N104     N      0.710880000000     0.614730000000     0.628470000000    -0.163314   
N105     N      0.633730000000     0.650260000000     0.561460000000    -0.197866   
N106     N      0.962410000000     0.722790000000     0.754150000000    -0.178577   
N107     N      0.055400000000     0.772850000000     0.759840000000    -0.163415   
N108     N      0.966800000000     0.654630000000     0.738710000000    -0.197188   
O1       O      0.905360000000     0.729080000000     0.711130000000    -0.401887   
O2       O      0.779520000000     0.675470000000     0.645850000000    -0.395931   
O3       O      0.822370000000     0.704410000000     0.768470000000    -0.401035   
O4       O      0.864850000000     0.701440000000     0.587470000000    -0.397435   
O5       O      0.852730000000     0.633250000000     0.604630000000    -0.397774   
O6       O      0.810060000000     0.636270000000     0.786010000000    -0.401826   
O7       O      0.769450000000     0.608100000000     0.663190000000    -0.401731   
O8       O      0.895080000000     0.661830000000     0.728640000000    -0.401859   
O9       O      0.112010000000     0.835390000000     0.805140000000    -0.400397   
O10      O      0.235830000000     0.904310000000     0.878550000000    -0.397891   
O11      O      0.197440000000     0.891860000000     0.752420000000    -0.400355   
O12      O      0.149470000000     0.847330000000     0.931940000000    -0.397495   
O13      O      0.159470000000     0.789690000000     0.917370000000    -0.397676   
O14      O      0.207830000000     0.834560000000     0.737930000000    -0.40225    
O15      O      0.243970000000     0.845580000000     0.864130000000    -0.404543   
O16      O      0.120600000000     0.776970000000     0.790300000000    -0.397617   
O17      O      0.569310000000     0.055700000000     0.030080000000    -0.40342    
O18      O      0.437420000000     0.002310000000     0.008620000000    -0.404244   
O19      O      0.497470000000     0.029020000000     0.115830000000    -0.402001   
O20      O      0.511500000000     0.030020000000     0.921910000000    -0.400279   
O21      O      0.501980000000     0.962010000000     0.926270000000    -0.399613   
O22      O      0.487730000000     0.960940000000     0.120290000000    -0.400968   
O23      O      0.429720000000     0.935300000000     0.012860000000    -0.405002   
O24      O      0.561560000000     0.988490000000     0.035760000000    -0.39838    
O25      O      0.117260000000     0.359730000000     0.255420000000    -0.40136    
O26      O      0.245960000000     0.423040000000     0.310400000000    -0.404255   
O27      O      0.200920000000     0.394630000000     0.189380000000    -0.400268   
O28      O      0.163640000000     0.389700000000     0.375370000000    -0.401733   
O29      O      0.161350000000     0.325200000000     0.387980000000    -0.396409   
O30      O      0.194990000000     0.328330000000     0.199390000000    -0.396635   
O31      O      0.243780000000     0.358670000000     0.319250000000    -0.398871   
O32      O      0.114630000000     0.295470000000     0.269120000000    -0.403308   
O33      O      0.908160000000     0.237240000000     0.136500000000    -0.399037   
O34      O      0.780040000000     0.156820000000     0.090180000000    -0.405135   
O35      O      0.827960000000     0.185510000000     0.209300000000    -0.397095   
O36      O      0.858090000000     0.206980000000     0.018800000000    -0.399279   
O37      O      0.869720000000     0.149820000000     0.016330000000    -0.398274   
O38      O      0.839360000000     0.128220000000     0.206650000000    -0.399568   
O39      O      0.790080000000     0.098850000000     0.087290000000    -0.402267   
O40      O      0.918690000000     0.179400000000     0.134730000000    -0.399823   
O41      O      0.562390000000     0.573400000000     0.543330000000    -0.403617   
O42      O      0.435630000000     0.507830000000     0.482190000000    -0.401245   
O43      O      0.477630000000     0.516980000000     0.604270000000    -0.397893   
O44      O      0.518670000000     0.562510000000     0.422020000000    -0.398364   
O45      O      0.528880000000     0.505270000000     0.403900000000    -0.400396   
O46      O      0.483700000000     0.457880000000     0.582450000000    -0.405637   
O47      O      0.441880000000     0.448980000000     0.458710000000    -0.394589   
O48      O      0.568000000000     0.513670000000     0.526250000000    -0.402459   
O49      O      0.198840000000     0.305990000000     0.761960000000    -0.403944   
O50      O      0.124690000000     0.353730000000     0.837400000000    -0.405685   
O51      O      0.138320000000     0.328850000000     0.711020000000    -0.401885   
O52      O      0.187020000000     0.330390000000     0.889700000000    -0.398962   
O53      O      0.240990000000     0.399380000000     0.873200000000    -0.405254   
O54      O      0.193180000000     0.397780000000     0.694730000000    -0.400104   
O55      O      0.179560000000     0.422140000000     0.821040000000    -0.40282    
O56      O      0.254760000000     0.374380000000     0.746180000000    -0.396655   
O57      O      0.346100000000     0.121560000000     0.620290000000    -0.403835   
O58      O      0.297940000000     0.203080000000     0.656820000000    -0.40507    
O59      O      0.325610000000     0.178440000000     0.542510000000    -0.399847   
O60      O      0.317810000000     0.147910000000     0.732870000000    -0.400182   
O61      O      0.387110000000     0.202570000000     0.746340000000    -0.400471   
O62      O      0.393850000000     0.234370000000     0.557330000000    -0.406285   
O63      O      0.365800000000     0.259260000000     0.672830000000    -0.401712   
O64      O      0.414200000000     0.177920000000     0.632310000000    -0.403439   
O65      O      0.008250000000     0.448550000000     0.952600000000    -0.396674   
O66      O      0.942610000000     0.514370000000     0.990570000000    -0.399333   
O67      O      0.971940000000     0.491290000000     0.874940000000    -0.39781    
O68      O      0.977970000000     0.471820000000     0.066450000000    -0.400084   
O69      O      0.042510000000     0.534510000000     0.073070000000    -0.396274   
O70      O      0.037130000000     0.553400000000     0.880140000000    -0.394499   
O71      O      0.006560000000     0.577690000000     0.996050000000    -0.395594   
O72      O      0.072210000000     0.511810000000     0.959260000000    -0.400815   
O73      O      0.599330000000     0.833410000000     0.321460000000    -0.405222   
O74      O      0.665600000000     0.773280000000     0.256820000000    -0.396643   
O75      O      0.641240000000     0.790400000000     0.381490000000    -0.397844   
O76      O      0.623660000000     0.817170000000     0.196330000000    -0.399558   
O77      O      0.688120000000     0.879920000000     0.200770000000    -0.400202   
O78      O      0.703350000000     0.855430000000     0.387350000000    -0.399107   
O79      O      0.728860000000     0.837120000000     0.264480000000    -0.397666   
O80      O      0.661750000000     0.897810000000     0.324130000000    -0.398748   
O81      O      0.846490000000     0.603920000000     0.162050000000    -0.405362   
O82      O      0.780370000000     0.666920000000     0.215320000000    -0.397145   
O83      O      0.799040000000     0.637390000000     0.094990000000    -0.400228   
O84      O      0.828340000000     0.631960000000     0.282880000000    -0.401491   
O85      O      0.889430000000     0.697550000000     0.273050000000    -0.399819   
O86      O      0.860000000000     0.703120000000     0.084910000000    -0.397858   
O87      O      0.842160000000     0.731420000000     0.205380000000    -0.404717   
O88      O      0.908110000000     0.668490000000     0.151640000000    -0.398055   
O89      O      0.509410000000     0.930360000000     0.500600000000    -0.397219   
O90      O      0.445580000000     0.995120000000     0.558120000000    -0.395132   
O91      O      0.456560000000     0.960740000000     0.439250000000    -0.403068   
O92      O      0.498430000000     0.963420000000     0.621960000000    -0.401332   
O93      O      0.558760000000     0.028200000000     0.602950000000    -0.403499   
O94      O      0.515850000000     0.026530000000     0.420600000000    -0.404407   
O95      O      0.507080000000     0.059310000000     0.540610000000    -0.407369   
O96      O      0.569750000000     0.995070000000     0.480790000000    -0.399147   
O97      O      0.413380000000     0.234130000000     0.109440000000    -0.397351   
O98      O      0.359890000000     0.107520000000     0.173960000000    -0.395318   
O99      O      0.383270000000     0.150210000000     0.050460000000    -0.40391    
O100     O      0.391240000000     0.192340000000     0.234030000000    -0.399479   
O101     O      0.323180000000     0.182280000000     0.226660000000    -0.397067   
O102     O      0.315700000000     0.140920000000     0.041390000000    -0.4031     
O103     O      0.292960000000     0.099920000000     0.164670000000    -0.405726   
O104     O      0.345970000000     0.225530000000     0.101530000000    -0.399217   
O105     O      0.507800000000     0.446670000000     0.020400000000    -0.401744   
O106     O      0.575520000000     0.577300000000     0.976290000000    -0.402017   
O107     O      0.554820000000     0.525870000000     0.092740000000    -0.405208   
O108     O      0.527350000000     0.496510000000     0.903190000000    -0.398278   
O109     O      0.466750000000     0.501890000000     0.913840000000    -0.39997    
O110     O      0.493940000000     0.530300000000     0.103790000000    -0.400206   
O111     O      0.513860000000     0.580170000000     0.987480000000    -0.403098   
O112     O      0.446150000000     0.449670000000     0.030990000000    -0.400966   
O113     O      0.255160000000     0.904160000000     0.310250000000    -0.403315   
O114     O      0.177440000000     0.774700000000     0.353110000000    -0.405204   
O115     O      0.202160000000     0.824750000000     0.235680000000    -0.399957   
O116     O      0.228540000000     0.851980000000     0.426870000000    -0.396953   
O117     O      0.171220000000     0.863090000000     0.434850000000    -0.399838   
O118     O      0.144780000000     0.835520000000     0.244930000000    -0.402753   
O119     O      0.119080000000     0.783740000000     0.362020000000    -0.40268    
O120     O      0.196950000000     0.913350000000     0.318530000000    -0.403643   
O121     O      0.073880000000     0.566350000000     0.444330000000    -0.400222   
O122     O      0.017150000000     0.439140000000     0.505890000000    -0.394832   
O123     O      0.050550000000     0.484580000000     0.384790000000    -0.399117   
O124     O      0.041400000000     0.523310000000     0.566490000000    -0.396556   
O125     O      0.974600000000     0.512710000000     0.543540000000    -0.403727   
O126     O      0.983390000000     0.473700000000     0.362680000000    -0.405636   
O127     O      0.951240000000     0.430920000000     0.482190000000    -0.408321   
O128     O      0.007530000000     0.557220000000     0.421510000000    -0.400532   
O129     O      0.897360000000     0.209580000000     0.570700000000    -0.39388    
O130     O      0.818000000000     0.081060000000     0.628180000000    -0.39234    
O131     O      0.834420000000     0.127560000000     0.508550000000    -0.400715   
O132     O      0.881670000000     0.162330000000     0.690580000000    -0.398914   
O133     O      0.829750000000     0.179710000000     0.711800000000    -0.404582   
O134     O      0.780790000000     0.142310000000     0.530680000000    -0.403494   
O135     O      0.766030000000     0.097670000000     0.653320000000    -0.405338   
O136     O      0.842180000000     0.222100000000     0.592610000000    -0.41492    
O137     O      0.662970000000     0.779920000000     0.838280000000    -0.395664   
O138     O      0.703450000000     0.899930000000     0.757680000000    -0.405556   
O139     O      0.682830000000     0.865200000000     0.889160000000    -0.399871   
O140     O      0.685980000000     0.820520000000     0.710960000000    -0.4075     
O141     O      0.616930000000     0.805920000000     0.693970000000    -0.400673   
O142     O      0.611290000000     0.842920000000     0.877590000000    -0.39988    
O143     O      0.633390000000     0.884350000000     0.751150000000    -0.407934   
O144     O      0.593340000000     0.762260000000     0.819050000000    -0.40503    


