data_structure

_audit_creation_method RASPA-1.0
_audit_creation_date 2023-5-22
_audit_author_name 'Poobodin Mano'

_cell_length_a    41.6121
_cell_length_b    41.2708
_cell_length_c    38.3168
_cell_angle_alpha 90.0039
_cell_angle_beta  90.0002
_cell_angle_gamma 89.9979
_cell_volume      65803.9

_symmetry_cell_setting          triclinic
_symmetry_space_group_name_Hall 'P 1'
_symmetry_space_group_name_H-M  'P 1'
_symmetry_Int_Tables_number     1

_symmetry_equiv_pos_as_xyz 'x,y,z'

loop_
_atom_site_label
_atom_site_type_symbol
_atom_site_fract_x
_atom_site_fract_y
_atom_site_fract_z
_atom_site_charge
C1       C      0.508940000000     0.325520000000     0.521100000000     0.478837   
C2       C      0.990420000000     0.207900000000     0.013640000000     0.471631   
C3       C      0.055230000000     0.263400000000     0.016770000000     0.473553   
C4       C      0.436170000000     0.278990000000     0.512130000000     0.474726   
C5       C      0.489780000000     0.319160000000     0.265680000000     0.463661   
C6       C      0.990850000000     0.197020000000     0.261520000000     0.466829   
C7       C      0.053780000000     0.259040000000     0.266550000000     0.473294   
C8       C      0.431940000000     0.256460000000     0.262700000000     0.469021   
C9       C      0.241390000000     0.338180000000     0.512580000000     0.467801   
C10      C      0.239960000000     0.218770000000     0.020320000000     0.469543   
C11      C      0.303720000000     0.275380000000     0.013990000000     0.474704   
C12      C      0.183460000000     0.274920000000     0.519000000000     0.470258   
C13      C      0.246060000000     0.340250000000     0.257780000000     0.47311    
C14      C      0.237940000000     0.219190000000     0.272060000000     0.472751   
C15      C      0.302710000000     0.277230000000     0.263220000000     0.475146   
C16      C      0.181180000000     0.284400000000     0.267600000000     0.47346    
C17      C      0.504310000000     0.456820000000     0.525690000000     0.403902   
C18      C      0.471470000000     0.080840000000     0.996930000000     0.401936   
C19      C      0.471120000000     0.033580000000     0.079290000000     0.411924   
C20      C      0.483990000000     0.500520000000     0.446810000000     0.414162   
C21      C      0.471680000000     0.445790000000     0.279230000000     0.401439   
C22      C      0.489890000000     0.068440000000     0.241140000000     0.399533   
C23      C      0.479200000000     0.027440000000     0.324210000000     0.413697   
C24      C      0.481180000000     0.488070000000     0.194110000000     0.412285   
C25      C      0.221550000000     0.468350000000     0.507950000000     0.399363   
C26      C      0.218240000000     0.094160000000     0.044200000000     0.400777   
C27      C      0.222420000000     0.013950000000     0.091600000000     0.411832   
C28      C      0.218730000000     0.549370000000     0.461930000000     0.412632   
C29      C      0.235540000000     0.472100000000     0.260120000000     0.402327   
C30      C      0.218720000000     0.095360000000     0.294880000000     0.403301   
C31      C      0.224960000000     0.015400000000     0.342030000000     0.412983   
C32      C      0.229120000000     0.551820000000     0.210890000000     0.412198   
C33      C      0.189250000000     0.047510000000     0.406980000000    -0.010226   
C34      C      0.249010000000     0.052950000000     0.408110000000    -0.00944067 
C35      C      0.192610000000     0.512160000000     0.394940000000    -0.0105682  
C36      C      0.252380000000     0.017270000000     0.397770000000    -0.0091367  
C37      C      0.199330000000     0.554510000000     0.156560000000    -0.00805357 
C38      C      0.258900000000     0.047430000000     0.156350000000    -0.0117066  
C39      C      0.194890000000     0.518740000000     0.147100000000    -0.0101978  
C40      C      0.254500000000     0.011930000000     0.145060000000    -0.0103305  
C41      C      0.009440000000     0.531940000000     0.377780000000    -0.00784243 
C42      C      0.449430000000     0.031850000000     0.379030000000    -0.0113796  
C43      C      0.009810000000     0.496890000000     0.390460000000    -0.00778017 
C44      C      0.449810000000     0.997620000000     0.394990000000    -0.0114558  
C45      C      0.009470000000     0.497920000000     0.140070000000    -0.0121039  
C46      C      0.450770000000     0.485850000000     0.140100000000    -0.0078845  
C47      C      0.002020000000     0.033890000000     0.133290000000    -0.00925244 
C48      C      0.443210000000     0.021770000000     0.133420000000    -0.010629   
C49      C      0.211380000000     0.168020000000     0.255880000000    -0.00749782 
C50      C      0.256640000000     0.168950000000     0.300210000000    -0.00749795 
C51      C      0.191880000000     0.146520000000     0.280760000000    -0.0130467  
C52      C      0.237540000000     0.145630000000     0.323180000000    -0.00976152 
C53      C      0.272910000000     0.391360000000     0.273460000000    -0.00671049 
C54      C      0.233410000000     0.389430000000     0.224010000000    -0.00668935 
C55      C      0.258780000000     0.423600000000     0.285460000000    -0.0131761  
C56      C      0.216700000000     0.419780000000     0.237840000000    -0.0114233  
C57      C      0.193900000000     0.146930000000     0.030250000000    -0.0130612  
C58      C      0.242580000000     0.144020000000     0.068670000000    -0.0110894  
C59      C      0.216750000000     0.165520000000     0.503500000000    -0.00726488 
C60      C      0.264620000000     0.164860000000     0.544170000000    -0.0067924  
C61      C      0.218890000000     0.390010000000     0.035160000000    -0.00589198 
C62      C      0.260410000000     0.390840000000     0.490400000000    -0.00859821 
C63      C      0.200170000000     0.415700000000     0.015140000000    -0.0136     
C64      C      0.244510000000     0.421590000000     0.475630000000    -0.0119253  
C65      C      0.216010000000     0.292320000000     0.371570000000    -0.0154075  
C66      C      0.265430000000     0.261530000000     0.370310000000    -0.0195976  
C67      C      0.221030000000     0.298850000000     0.411100000000    -0.0185894  
C68      C      0.270520000000     0.268210000000     0.409670000000    -0.0153554  
C69      C      0.216030000000     0.290900000000     0.120760000000    -0.0157942  
C70      C      0.264120000000     0.258050000000     0.121050000000    -0.0170465  
C71      C      0.220480000000     0.297840000000     0.160090000000    -0.01927    
C72      C      0.268490000000     0.264770000000     0.160540000000    -0.0160242  
C73      C      0.022690000000     0.117130000000     0.252370000000    -0.013108   
C74      C      0.971850000000     0.121420000000     0.217460000000    -0.011791   
C75      C      0.510380000000     0.142820000000     0.278040000000    -0.00708726 
C76      C      0.460720000000     0.149490000000     0.240670000000    -0.00703897 
C77      C      0.989300000000     0.396680000000     0.310750000000    -0.0100112  
C78      C      0.445300000000     0.393950000000     0.266250000000    -0.012838   
C79      C      0.008330000000     0.370820000000     0.291000000000    -0.00841225 
C80      C      0.465070000000     0.369840000000     0.244510000000    -0.00819967 
C81      C      0.353190000000     0.275270000000     0.228630000000    -0.00901245 
C82      C      0.354930000000     0.281200000000     0.293930000000    -0.00838617 
C83      C      0.380330000000     0.250260000000     0.230740000000    -0.00882203 
C84      C      0.380900000000     0.255180000000     0.295970000000    -0.00937303 
C85      C      0.105440000000     0.257360000000     0.299110000000    -0.00876928 
C86      C      0.105070000000     0.262390000000     0.233700000000    -0.00940283 
C87      C      0.130190000000     0.284810000000     0.301440000000    -0.0092389  
C88      C      0.129240000000     0.290150000000     0.236380000000    -0.00788789 
C89      C      0.489820000000     0.129100000000     0.463510000000    -0.00995031 
C90      C      0.446720000000     0.133790000000     0.009690000000    -0.0141734  
C91      C      0.006840000000     0.156290000000     0.482970000000    -0.00699033 
C92      C      0.964350000000     0.157650000000     0.033750000000    -0.00662163 
C93      C      0.018860000000     0.381870000000     0.037190000000    -0.0064075  
C94      C      0.038070000000     0.375200000000     0.503180000000    -0.00627198 
C95      C      0.499330000000     0.407470000000     0.057110000000    -0.0118739  
C96      C      0.525490000000     0.409570000000     0.496410000000    -0.0141604  
C97      C      0.355120000000     0.272740000000     0.046130000000    -0.00811918 
C98      C      0.355420000000     0.268860000000     0.479650000000    -0.00941265 
C99      C      0.385260000000     0.293000000000     0.040680000000    -0.00905468 
C100     C      0.386410000000     0.289020000000     0.477710000000    -0.00902536 
C101     C      0.106160000000     0.255670000000     0.049650000000    -0.00887768 
C102     C      0.107160000000     0.247800000000     0.486890000000    -0.00734195 
C103     C      0.132080000000     0.281910000000     0.052550000000    -0.00870053 
C104     C      0.131640000000     0.275200000000     0.487460000000    -0.0087349  
C105     C      0.016030000000     0.243130000000     0.410150000000    -0.019449   
C106     C      0.470760000000     0.279760000000     0.408490000000    -0.0163904  
C107     C      0.021050000000     0.247810000000     0.370380000000    -0.0159367  
C108     C      0.475660000000     0.284210000000     0.368590000000    -0.0179907  
C109     C      0.474570000000     0.242780000000     0.118030000000    -0.0162034  
C110     C      0.019050000000     0.280680000000     0.120940000000    -0.0154471  
C111     C      0.467180000000     0.249070000000     0.157090000000    -0.0149383  
C112     C      0.011590000000     0.286990000000     0.160030000000    -0.0150425  
C113     C      0.499040000000     0.329630000000     0.013600000000     0.470141   
C114     C      0.986730000000     0.206260000000     0.509730000000     0.475579   
C115     C      0.055500000000     0.254980000000     0.517930000000     0.47223    
C116     C      0.434930000000     0.275500000000     0.010680000000     0.472646   
C117     C      0.497160000000     0.313980000000     0.766210000000     0.464142   
C118     C      0.998220000000     0.191820000000     0.763520000000     0.469478   
C119     C      0.057620000000     0.254310000000     0.767210000000     0.469051   
C120     C      0.435630000000     0.251760000000     0.762300000000     0.470284   
C121     C      0.243840000000     0.340600000000     0.012470000000     0.467612   
C122     C      0.244030000000     0.216150000000     0.519620000000     0.468968   
C123     C      0.304910000000     0.276700000000     0.513110000000     0.470725   
C124     C      0.182930000000     0.282240000000     0.018510000000     0.473296   
C125     C      0.249840000000     0.337730000000     0.757380000000     0.47296    
C126     C      0.240810000000     0.216790000000     0.772580000000     0.47173    
C127     C      0.305980000000     0.273620000000     0.763450000000     0.471476   
C128     C      0.184380000000     0.281910000000     0.768000000000     0.473275   
C129     C      0.474630000000     0.455750000000     0.029230000000     0.400066   
C130     C      0.477160000000     0.079100000000     0.495940000000     0.404755   
C131     C      0.498670000000     0.033410000000     0.578050000000     0.412044   
C132     C      0.475980000000     0.501050000000     0.947200000000     0.411833   
C133     C      0.495670000000     0.444050000000     0.777540000000     0.401292   
C134     C      0.515920000000     0.067120000000     0.742820000000     0.401944   
C135     C      0.500130000000     0.024760000000     0.825100000000     0.411853   
C136     C      0.511300000000     0.488180000000     0.694390000000     0.411753   
C137     C      0.222490000000     0.470220000000     0.006620000000     0.399072   
C138     C      0.220750000000     0.092480000000     0.545140000000     0.400561   
C139     C      0.223870000000     0.012130000000     0.592620000000     0.412312   
C140     C      0.218720000000     0.550900000000     0.960730000000     0.412641   
C141     C      0.239270000000     0.469400000000     0.760890000000     0.402177   
C142     C      0.222280000000     0.092690000000     0.795650000000     0.402776   
C143     C      0.228410000000     0.013000000000     0.842960000000     0.413182   
C144     C      0.232860000000     0.549260000000     0.711830000000     0.412532   
C145     C      0.190550000000     0.046270000000     0.905280000000    -0.0102057  
C146     C      0.250030000000     0.053730000000     0.907590000000    -0.00934562 
C147     C      0.195290000000     0.510510000000     0.895290000000    -0.0103937  
C148     C      0.254780000000     0.017750000000     0.899060000000    -0.0095476  
C149     C      0.202720000000     0.553110000000     0.657880000000    -0.0077712  
C150     C      0.262080000000     0.044460000000     0.657000000000    -0.0120123  
C151     C      0.197240000000     0.517470000000     0.648500000000    -0.010045   
C152     C      0.256640000000     0.009140000000     0.645560000000    -0.0102144  
C153     C      0.021500000000     0.521820000000     0.884050000000    -0.0102226  
C154     C      0.464200000000     0.037350000000     0.873810000000    -0.00949989 
C155     C      0.010530000000     0.488830000000     0.897650000000    -0.00852045 
C156     C      0.453100000000     0.004730000000     0.888690000000    -0.0120269  
C157     C      0.041120000000     0.496980000000     0.639950000000    -0.0129895  
C158     C      0.482160000000     0.486850000000     0.640050000000    -0.00690116 
C159     C      0.034800000000     0.032570000000     0.629140000000    -0.0117067  
C160     C      0.475740000000     0.023020000000     0.634780000000    -0.00912808 
C161     C      0.214270000000     0.165510000000     0.756730000000    -0.00751045 
C162     C      0.259750000000     0.166700000000     0.800800000000    -0.00758648 
C163     C      0.195100000000     0.143730000000     0.781640000000    -0.0131233  
C164     C      0.240990000000     0.143100000000     0.823770000000    -0.0097092  
C165     C      0.277070000000     0.388710000000     0.772850000000    -0.00652333 
C166     C      0.237170000000     0.387060000000     0.723810000000    -0.00669798 
C167     C      0.262820000000     0.420680000000     0.785500000000    -0.01335    
C168     C      0.220420000000     0.417220000000     0.738130000000    -0.0116373  
C169     C      0.197780000000     0.145570000000     0.530270000000    -0.0134028  
C170     C      0.246340000000     0.142130000000     0.568770000000    -0.010972   
C171     C      0.212260000000     0.168190000000     0.004110000000    -0.00809266 
C172     C      0.260360000000     0.167300000000     0.044340000000    -0.00649347 
C173     C      0.216390000000     0.387430000000     0.535890000000    -0.00592021 
C174     C      0.263090000000     0.393220000000     0.989750000000    -0.00771735 
C175     C      0.198190000000     0.414200000000     0.516820000000    -0.0124603  
C176     C      0.246960000000     0.423850000000     0.974750000000    -0.0121609  
C177     C      0.219880000000     0.295730000000     0.870780000000    -0.0154988  
C178     C      0.264290000000     0.257930000000     0.871440000000    -0.0188573  
C179     C      0.225240000000     0.302600000000     0.910190000000    -0.0179008  
C180     C      0.269670000000     0.264840000000     0.910730000000    -0.0154043  
C181     C      0.217290000000     0.286950000000     0.621110000000    -0.0158531  
C182     C      0.266830000000     0.256400000000     0.620740000000    -0.0169865  
C183     C      0.221910000000     0.294170000000     0.660360000000    -0.019443   
C184     C      0.271360000000     0.263330000000     0.660200000000    -0.0161925  
C185     C      0.042110000000     0.118110000000     0.759830000000    -0.0136176  
C186     C      0.998610000000     0.118060000000     0.714730000000    -0.0105694  
C187     C      0.521730000000     0.140150000000     0.783470000000    -0.00778136 
C188     C      0.478550000000     0.141120000000     0.737020000000    -0.00697547 
C189     C      0.011750000000     0.392970000000     0.806690000000    -0.0107571  
C190     C      0.463840000000     0.394660000000     0.766900000000    -0.0125204  
C191     C      0.024370000000     0.363070000000     0.787460000000    -0.00837513 
C192     C      0.477840000000     0.366880000000     0.745130000000    -0.00764827 
C193     C      0.356380000000     0.271140000000     0.728710000000    -0.00932191 
C194     C      0.358330000000     0.276400000000     0.794090000000    -0.00888077 
C195     C      0.383840000000     0.246400000000     0.730380000000    -0.00900083 
C196     C      0.384580000000     0.250610000000     0.795640000000    -0.00926496 
C197     C      0.109270000000     0.253840000000     0.799890000000    -0.00895827 
C198     C      0.108890000000     0.258410000000     0.734430000000    -0.0097259  
C199     C      0.133440000000     0.281850000000     0.802000000000    -0.00924792 
C200     C      0.132280000000     0.286840000000     0.736930000000    -0.00771635 
C201     C      0.495290000000     0.130300000000     0.971010000000    -0.0112478  
C202     C      0.445970000000     0.128390000000     0.508150000000    -0.0129185  
C203     C      0.012260000000     0.155760000000     0.993300000000    -0.00487724 
C204     C      0.963300000000     0.154570000000     0.529410000000    -0.00661445 
C205     C      0.007390000000     0.373480000000     0.559240000000    -0.00596648 
C206     C      0.975690000000     0.380020000000     0.990920000000    -0.00578192 
C207     C      0.489860000000     0.404540000000     0.550060000000    -0.0102621  
C208     C      0.454490000000     0.401740000000     0.013610000000    -0.0142492  
C209     C      0.356280000000     0.273970000000     0.545310000000    -0.00865985 
C210     C      0.353310000000     0.260760000000     0.981780000000    -0.00822932 
C211     C      0.386150000000     0.295130000000     0.542570000000    -0.00823003 
C212     C      0.384360000000     0.280080000000     0.976700000000    -0.00845885 
C213     C      0.105850000000     0.246580000000     0.552010000000    -0.00913922 
C214     C      0.106760000000     0.261560000000     0.984550000000    -0.00728198 
C215     C      0.132650000000     0.272250000000     0.553190000000    -0.00949467 
C216     C      0.131240000000     0.288840000000     0.987400000000    -0.00814845 
C217     C      0.016970000000     0.241030000000     0.911160000000    -0.0176952  
C218     C      0.469570000000     0.274770000000     0.906970000000    -0.0145158  
C219     C      0.023020000000     0.245330000000     0.871570000000    -0.0156496  
C220     C      0.475610000000     0.279040000000     0.867350000000    -0.0191841  
C221     C      0.481070000000     0.232020000000     0.619330000000    -0.0133062  
C222     C      0.016920000000     0.278310000000     0.621420000000    -0.0164619  
C223     C      0.473370000000     0.236790000000     0.658590000000    -0.0169389  
C224     C      0.008990000000     0.283270000000     0.660500000000    -0.0150865  
C225     C      0.508940000000     0.825520000000     0.521100000000     0.478828   
C226     C      0.990420000000     0.707900000000     0.013640000000     0.471614   
C227     C      0.055230000000     0.763400000000     0.016770000000     0.473636   
C228     C      0.436180000000     0.778990000000     0.512130000000     0.474878   
C229     C      0.489780000000     0.819160000000     0.265680000000     0.463659   
C230     C      0.990850000000     0.697020000000     0.261520000000     0.466894   
C231     C      0.053780000000     0.759040000000     0.266550000000     0.473297   
C232     C      0.431940000000     0.756460000000     0.262700000000     0.46889    
C233     C      0.241390000000     0.838180000000     0.512580000000     0.467789   
C234     C      0.239960000000     0.718770000000     0.020320000000     0.469402   
C235     C      0.303720000000     0.775380000000     0.013990000000     0.474714   
C236     C      0.183460000000     0.774920000000     0.519000000000     0.470247   
C237     C      0.246060000000     0.840250000000     0.257780000000     0.473126   
C238     C      0.237940000000     0.719190000000     0.272060000000     0.472758   
C239     C      0.302710000000     0.777230000000     0.263220000000     0.475199   
C240     C      0.181180000000     0.784400000000     0.267600000000     0.473417   
C241     C      0.504310000000     0.956820000000     0.525690000000     0.403867   
C242     C      0.471470000000     0.580840000000     0.996930000000     0.401946   
C243     C      0.471120000000     0.533580000000     0.079290000000     0.411965   
C244     C      0.483990000000     0.000520000000     0.446810000000     0.413972   
C245     C      0.471680000000     0.945790000000     0.279230000000     0.401397   
C246     C      0.489890000000     0.568440000000     0.241140000000     0.399578   
C247     C      0.479200000000     0.527440000000     0.324210000000     0.413771   
C248     C      0.481180000000     0.988070000000     0.194110000000     0.412246   
C249     C      0.221550000000     0.968350000000     0.507950000000     0.399344   
C250     C      0.218240000000     0.594160000000     0.044200000000     0.40079    
C251     C      0.222420000000     0.513960000000     0.091600000000     0.411911   
C252     C      0.218730000000     0.049370000000     0.461930000000     0.412609   
C253     C      0.235540000000     0.972100000000     0.260120000000     0.402302   
C254     C      0.218720000000     0.595360000000     0.294880000000     0.403308   
C255     C      0.224960000000     0.515410000000     0.342030000000     0.413061   
C256     C      0.229120000000     0.051820000000     0.210890000000     0.412136   
C257     C      0.189250000000     0.547500000000     0.406980000000    -0.0102953  
C258     C      0.249010000000     0.552950000000     0.408110000000    -0.00943516 
C259     C      0.192610000000     0.012160000000     0.394940000000    -0.0108068  
C260     C      0.252380000000     0.517270000000     0.397770000000    -0.00914135 
C261     C      0.199330000000     0.054510000000     0.156560000000    -0.00805369 
C262     C      0.258900000000     0.547430000000     0.156350000000    -0.0117687  
C263     C      0.194890000000     0.018740000000     0.147100000000    -0.0101944  
C264     C      0.254500000000     0.511930000000     0.145060000000    -0.0100945  
C265     C      0.009440000000     0.031950000000     0.377780000000    -0.00807353 
C266     C      0.449430000000     0.531850000000     0.379030000000    -0.0111803  
C267     C      0.009810000000     0.996890000000     0.390460000000    -0.00756309 
C268     C      0.449810000000     0.497620000000     0.394990000000    -0.0116601  
C269     C      0.009470000000     0.997920000000     0.140070000000    -0.0118458  
C270     C      0.450770000000     0.985850000000     0.140100000000    -0.00768623 
C271     C      0.002020000000     0.533890000000     0.133290000000    -0.00902998 
C272     C      0.443210000000     0.521770000000     0.133420000000    -0.0104255  
C273     C      0.211380000000     0.668020000000     0.255880000000    -0.00749776 
C274     C      0.256640000000     0.668950000000     0.300210000000    -0.00749776 
C275     C      0.191880000000     0.646520000000     0.280760000000    -0.0130471  
C276     C      0.237540000000     0.645630000000     0.323180000000    -0.00976214 
C277     C      0.272910000000     0.891360000000     0.273460000000    -0.00670368 
C278     C      0.233410000000     0.889430000000     0.224020000000    -0.00657892 
C279     C      0.258780000000     0.923600000000     0.285460000000    -0.0131843  
C280     C      0.216700000000     0.919780000000     0.237840000000    -0.0114725  
C281     C      0.193900000000     0.646930000000     0.030250000000    -0.0130582  
C282     C      0.242570000000     0.644020000000     0.068670000000    -0.0110279  
C283     C      0.216750000000     0.665520000000     0.503500000000    -0.00726256 
C284     C      0.264620000000     0.664860000000     0.544170000000    -0.00680932 
C285     C      0.218890000000     0.890010000000     0.035160000000    -0.00589225 
C286     C      0.260410000000     0.890840000000     0.490400000000    -0.00862694 
C287     C      0.200170000000     0.915700000000     0.015140000000    -0.0135985  
C288     C      0.244500000000     0.921590000000     0.475630000000    -0.0118617  
C289     C      0.216010000000     0.792320000000     0.371570000000    -0.0153877  
C290     C      0.265430000000     0.761530000000     0.370310000000    -0.0196096  
C291     C      0.221030000000     0.798850000000     0.411100000000    -0.0185976  
C292     C      0.270520000000     0.768210000000     0.409670000000    -0.0153517  
C293     C      0.216030000000     0.790900000000     0.120760000000    -0.0158168  
C294     C      0.264120000000     0.758050000000     0.121050000000    -0.0169989  
C295     C      0.220480000000     0.797840000000     0.160090000000    -0.0192642  
C296     C      0.268500000000     0.764770000000     0.160540000000    -0.0161444  
C297     C      0.022690000000     0.617130000000     0.252370000000    -0.0131133  
C298     C      0.971850000000     0.621420000000     0.217460000000    -0.0117796  
C299     C      0.510380000000     0.642820000000     0.278040000000    -0.00708892 
C300     C      0.460720000000     0.649490000000     0.240670000000    -0.00707509 
C301     C      0.989300000000     0.896680000000     0.310750000000    -0.0100314  
C302     C      0.445300000000     0.893950000000     0.266250000000    -0.0128743  
C303     C      0.008330000000     0.870820000000     0.291000000000    -0.00840443 
C304     C      0.465070000000     0.869840000000     0.244510000000    -0.00821053 
C305     C      0.353190000000     0.775270000000     0.228630000000    -0.00901129 
C306     C      0.354930000000     0.781200000000     0.293930000000    -0.00838129 
C307     C      0.380330000000     0.750260000000     0.230740000000    -0.00882332 
C308     C      0.380900000000     0.755180000000     0.295970000000    -0.00937624 
C309     C      0.105440000000     0.757360000000     0.299110000000    -0.00876809 
C310     C      0.105070000000     0.762390000000     0.233700000000    -0.00940776 
C311     C      0.130190000000     0.784810000000     0.301440000000    -0.00924396 
C312     C      0.129240000000     0.790150000000     0.236380000000    -0.0078872  
C313     C      0.489810000000     0.629100000000     0.463510000000    -0.00989802 
C314     C      0.446720000000     0.633790000000     0.009690000000    -0.014177   
C315     C      0.006840000000     0.656290000000     0.482970000000    -0.0070053  
C316     C      0.964350000000     0.657650000000     0.033750000000    -0.00661948 
C317     C      0.018860000000     0.881870000000     0.037190000000    -0.00641333 
C318     C      0.038070000000     0.875200000000     0.503180000000    -0.00626831 
C319     C      0.499330000000     0.907470000000     0.057110000000    -0.011923   
C320     C      0.525500000000     0.909570000000     0.496410000000    -0.0142095  
C321     C      0.355120000000     0.772740000000     0.046130000000    -0.00811866 
C322     C      0.355420000000     0.768860000000     0.479650000000    -0.00940954 
C323     C      0.385260000000     0.793000000000     0.040680000000    -0.00905674 
C324     C      0.386420000000     0.789020000000     0.477710000000    -0.00902469 
C325     C      0.106160000000     0.755670000000     0.049650000000    -0.00886581 
C326     C      0.107160000000     0.747800000000     0.486890000000    -0.00733831 
C327     C      0.132080000000     0.781910000000     0.052550000000    -0.0087352  
C328     C      0.131640000000     0.775200000000     0.487460000000    -0.00873748 
C329     C      0.016030000000     0.743130000000     0.410150000000    -0.0194594  
C330     C      0.470760000000     0.779760000000     0.408490000000    -0.016393   
C331     C      0.021050000000     0.747810000000     0.370380000000    -0.015934   
C332     C      0.475660000000     0.784210000000     0.368590000000    -0.0180287  
C333     C      0.474570000000     0.742780000000     0.118030000000    -0.0162208  
C334     C      0.019050000000     0.780680000000     0.120940000000    -0.0154522  
C335     C      0.467180000000     0.749070000000     0.157090000000    -0.01493    
C336     C      0.011590000000     0.786990000000     0.160030000000    -0.0150134  
C337     C      0.499040000000     0.829630000000     0.013600000000     0.470112   
C338     C      0.986730000000     0.706260000000     0.509730000000     0.47558    
C339     C      0.055500000000     0.754980000000     0.517930000000     0.472282   
C340     C      0.434930000000     0.775500000000     0.010680000000     0.472654   
C341     C      0.497160000000     0.813980000000     0.766210000000     0.464274   
C342     C      0.998210000000     0.691820000000     0.763520000000     0.469466   
C343     C      0.057620000000     0.754310000000     0.767210000000     0.469043   
C344     C      0.435630000000     0.751760000000     0.762300000000     0.470332   
C345     C      0.243840000000     0.840600000000     0.012470000000     0.467619   
C346     C      0.244030000000     0.716150000000     0.519620000000     0.468956   
C347     C      0.304910000000     0.776700000000     0.513110000000     0.470783   
C348     C      0.182930000000     0.782240000000     0.018510000000     0.473304   
C349     C      0.249840000000     0.837730000000     0.757380000000     0.472959   
C350     C      0.240810000000     0.716790000000     0.772580000000     0.471646   
C351     C      0.305980000000     0.773620000000     0.763450000000     0.471476   
C352     C      0.184380000000     0.781910000000     0.768000000000     0.473273   
C353     C      0.474630000000     0.955750000000     0.029230000000     0.400044   
C354     C      0.477160000000     0.579100000000     0.495940000000     0.404883   
C355     C      0.498680000000     0.533410000000     0.578050000000     0.412301   
C356     C      0.475980000000     0.001050000000     0.947200000000     0.411636   
C357     C      0.495670000000     0.944050000000     0.777540000000     0.401252   
C358     C      0.515920000000     0.567120000000     0.742820000000     0.401946   
C359     C      0.500130000000     0.524750000000     0.825100000000     0.411922   
C360     C      0.511300000000     0.988180000000     0.694390000000     0.411731   
C361     C      0.222490000000     0.970220000000     0.006620000000     0.399134   
C362     C      0.220750000000     0.592480000000     0.545140000000     0.400336   
C363     C      0.223870000000     0.512130000000     0.592620000000     0.412343   
C364     C      0.218720000000     0.050900000000     0.960730000000     0.412617   
C365     C      0.239270000000     0.969400000000     0.760890000000     0.402157   
C366     C      0.222280000000     0.592690000000     0.795650000000     0.402782   
C367     C      0.228410000000     0.513000000000     0.842960000000     0.413214   
C368     C      0.232860000000     0.049260000000     0.711830000000     0.41275    
C369     C      0.190550000000     0.546270000000     0.905280000000    -0.0102549  
C370     C      0.250030000000     0.553730000000     0.907590000000    -0.00934161 
C371     C      0.195290000000     0.010520000000     0.895290000000    -0.0105973  
C372     C      0.254780000000     0.517750000000     0.899060000000    -0.00954547 
C373     C      0.202720000000     0.053110000000     0.657880000000    -0.00777187 
C374     C      0.262080000000     0.544460000000     0.657000000000    -0.0120698  
C375     C      0.197240000000     0.017470000000     0.648500000000    -0.0100245  
C376     C      0.256640000000     0.509140000000     0.645560000000    -0.0100087  
C377     C      0.021500000000     0.021820000000     0.884050000000    -0.010384   
C378     C      0.464200000000     0.537350000000     0.873810000000    -0.00958677 
C379     C      0.010530000000     0.988830000000     0.897650000000    -0.00833955 
C380     C      0.453100000000     0.504730000000     0.888690000000    -0.0116428  
C381     C      0.041120000000     0.996980000000     0.639950000000    -0.01281    
C382     C      0.482160000000     0.986850000000     0.640050000000    -0.00668293 
C383     C      0.034800000000     0.532570000000     0.629140000000    -0.0115066  
C384     C      0.475740000000     0.523020000000     0.634780000000    -0.00885341 
C385     C      0.214270000000     0.665510000000     0.756730000000    -0.00750853 
C386     C      0.259750000000     0.666700000000     0.800800000000    -0.00759235 
C387     C      0.195100000000     0.643730000000     0.781640000000    -0.0131528  
C388     C      0.240990000000     0.643100000000     0.823770000000    -0.00971005 
C389     C      0.277070000000     0.888710000000     0.772850000000    -0.00652176 
C390     C      0.237170000000     0.887060000000     0.723810000000    -0.00669631 
C391     C      0.262820000000     0.920680000000     0.785500000000    -0.0133534  
C392     C      0.220420000000     0.917220000000     0.738130000000    -0.0116411  
C393     C      0.197780000000     0.645570000000     0.530270000000    -0.0134127  
C394     C      0.246340000000     0.642130000000     0.568770000000    -0.0110021  
C395     C      0.212260000000     0.668190000000     0.004110000000    -0.00810591 
C396     C      0.260360000000     0.667310000000     0.044340000000    -0.00650505 
C397     C      0.216390000000     0.887430000000     0.535890000000    -0.00592351 
C398     C      0.263090000000     0.893220000000     0.989750000000    -0.00771613 
C399     C      0.198190000000     0.914200000000     0.516820000000    -0.0124586  
C400     C      0.246960000000     0.923850000000     0.974750000000    -0.012158   
C401     C      0.219880000000     0.795730000000     0.870780000000    -0.0154962  
C402     C      0.264290000000     0.757930000000     0.871440000000    -0.0187787  
C403     C      0.225240000000     0.802600000000     0.910190000000    -0.0179043  
C404     C      0.269680000000     0.764840000000     0.910730000000    -0.0155706  
C405     C      0.217280000000     0.786950000000     0.621110000000    -0.0159761  
C406     C      0.266830000000     0.756400000000     0.620740000000    -0.0169914  
C407     C      0.221910000000     0.794170000000     0.660360000000    -0.0193949  
C408     C      0.271360000000     0.763330000000     0.660200000000    -0.0161898  
C409     C      0.042110000000     0.618110000000     0.759830000000    -0.013621   
C410     C      0.998600000000     0.618060000000     0.714730000000    -0.0105854  
C411     C      0.521730000000     0.640150000000     0.783470000000    -0.00777373 
C412     C      0.478560000000     0.641120000000     0.737020000000    -0.00689115 
C413     C      0.011750000000     0.892970000000     0.806690000000    -0.0107693  
C414     C      0.463840000000     0.894660000000     0.766900000000    -0.0125266  
C415     C      0.024370000000     0.863070000000     0.787460000000    -0.00836655 
C416     C      0.477840000000     0.866880000000     0.745130000000    -0.00764238 
C417     C      0.356380000000     0.771140000000     0.728710000000    -0.00933725 
C418     C      0.358330000000     0.776400000000     0.794090000000    -0.00888237 
C419     C      0.383840000000     0.746400000000     0.730380000000    -0.00899447 
C420     C      0.384580000000     0.750610000000     0.795640000000    -0.00926084 
C421     C      0.109270000000     0.753840000000     0.799890000000    -0.00899264 
C422     C      0.108890000000     0.758410000000     0.734430000000    -0.0097274  
C423     C      0.133440000000     0.781850000000     0.802000000000    -0.00924023 
C424     C      0.132280000000     0.786840000000     0.736930000000    -0.00771737 
C425     C      0.495290000000     0.630300000000     0.971010000000    -0.011274   
C426     C      0.445970000000     0.628390000000     0.508150000000    -0.012916   
C427     C      0.012260000000     0.655760000000     0.993300000000    -0.00487771 
C428     C      0.963300000000     0.654570000000     0.529410000000    -0.00660856 
C429     C      0.007390000000     0.873480000000     0.559240000000    -0.00601642 
C430     C      0.975690000000     0.880020000000     0.990920000000    -0.0058333  
C431     C      0.489850000000     0.904540000000     0.550060000000    -0.0103612  
C432     C      0.454490000000     0.901740000000     0.013610000000    -0.0141927  
C433     C      0.356280000000     0.773970000000     0.545310000000    -0.00865122 
C434     C      0.353310000000     0.760760000000     0.981780000000    -0.00823421 
C435     C      0.386150000000     0.795130000000     0.542570000000    -0.00824142 
C436     C      0.384360000000     0.780080000000     0.976700000000    -0.00845196 
C437     C      0.105850000000     0.746580000000     0.552010000000    -0.00913757 
C438     C      0.106760000000     0.761560000000     0.984550000000    -0.00727752 
C439     C      0.132650000000     0.772250000000     0.553190000000    -0.00949733 
C440     C      0.131240000000     0.788840000000     0.987400000000    -0.00815254 
C441     C      0.016970000000     0.741030000000     0.911160000000    -0.0176915  
C442     C      0.469570000000     0.774770000000     0.906970000000    -0.0145134  
C443     C      0.023020000000     0.745330000000     0.871570000000    -0.0156537  
C444     C      0.475610000000     0.779040000000     0.867350000000    -0.0191931  
C445     C      0.481080000000     0.732020000000     0.619330000000    -0.0133103  
C446     C      0.016920000000     0.778310000000     0.621420000000    -0.0164631  
C447     C      0.473370000000     0.736800000000     0.658590000000    -0.0168793  
C448     C      0.008990000000     0.783270000000     0.660500000000    -0.0150859  
C449     C      0.008940000000     0.325520000000     0.521100000000     0.47874    
C450     C      0.490420000000     0.207900000000     0.013640000000     0.471663   
C451     C      0.555230000000     0.263400000000     0.016770000000     0.473597   
C452     C      0.936170000000     0.278990000000     0.512130000000     0.474764   
C453     C      0.989780000000     0.319160000000     0.265680000000     0.463632   
C454     C      0.490850000000     0.197020000000     0.261520000000     0.466855   
C455     C      0.553780000000     0.259040000000     0.266550000000     0.473326   
C456     C      0.931940000000     0.256460000000     0.262700000000     0.468874   
C457     C      0.741390000000     0.338180000000     0.512580000000     0.467803   
C458     C      0.739960000000     0.218770000000     0.020320000000     0.469458   
C459     C      0.803720000000     0.275380000000     0.013990000000     0.474707   
C460     C      0.683460000000     0.274920000000     0.519000000000     0.470261   
C461     C      0.746060000000     0.340250000000     0.257780000000     0.473124   
C462     C      0.737940000000     0.219190000000     0.272060000000     0.472761   
C463     C      0.802720000000     0.277230000000     0.263220000000     0.475077   
C464     C      0.681180000000     0.284400000000     0.267600000000     0.473417   
C465     C      0.004310000000     0.456820000000     0.525690000000     0.404113   
C466     C      0.971470000000     0.080840000000     0.996930000000     0.401931   
C467     C      0.971120000000     0.033580000000     0.079290000000     0.411939   
C468     C      0.983990000000     0.500520000000     0.446810000000     0.413939   
C469     C      0.971680000000     0.445790000000     0.279230000000     0.401194   
C470     C      0.989880000000     0.068440000000     0.241140000000     0.399332   
C471     C      0.979200000000     0.027440000000     0.324210000000     0.413483   
C472     C      0.981180000000     0.488070000000     0.194110000000     0.412057   
C473     C      0.721550000000     0.468350000000     0.507950000000     0.399372   
C474     C      0.718240000000     0.094160000000     0.044200000000     0.40078    
C475     C      0.722420000000     0.013950000000     0.091600000000     0.411837   
C476     C      0.718730000000     0.549370000000     0.461930000000     0.412875   
C477     C      0.735540000000     0.472100000000     0.260120000000     0.402328   
C478     C      0.718720000000     0.095360000000     0.294880000000     0.403302   
C479     C      0.724960000000     0.015400000000     0.342030000000     0.412984   
C480     C      0.729120000000     0.551820000000     0.210890000000     0.412201   
C481     C      0.689250000000     0.047510000000     0.406980000000    -0.0102256  
C482     C      0.749010000000     0.052950000000     0.408110000000    -0.00944015 
C483     C      0.692610000000     0.512160000000     0.394940000000    -0.0105924  
C484     C      0.752380000000     0.017270000000     0.397770000000    -0.00913596 
C485     C      0.699330000000     0.554510000000     0.156560000000    -0.00801442 
C486     C      0.758900000000     0.047430000000     0.156350000000    -0.0116855  
C487     C      0.694890000000     0.518740000000     0.147100000000    -0.010211   
C488     C      0.754500000000     0.011930000000     0.145060000000    -0.0103959  
C489     C      0.509440000000     0.531940000000     0.377780000000    -0.00794439 
C490     C      0.949430000000     0.031850000000     0.379030000000    -0.0113888  
C491     C      0.509810000000     0.496890000000     0.390460000000    -0.00788134 
C492     C      0.949810000000     0.997620000000     0.394990000000    -0.0114731  
C493     C      0.509480000000     0.497920000000     0.140070000000    -0.0122024  
C494     C      0.950770000000     0.485850000000     0.140100000000    -0.00783229 
C495     C      0.502020000000     0.033890000000     0.133290000000    -0.00958903 
C496     C      0.943210000000     0.021770000000     0.133420000000    -0.0106243  
C497     C      0.711380000000     0.168020000000     0.255880000000    -0.00749679 
C498     C      0.756640000000     0.168950000000     0.300210000000    -0.00749623 
C499     C      0.691880000000     0.146520000000     0.280760000000    -0.0130458  
C500     C      0.737540000000     0.145630000000     0.323180000000    -0.00976115 
C501     C      0.772910000000     0.391360000000     0.273460000000    -0.00670836 
C502     C      0.733410000000     0.389430000000     0.224010000000    -0.00668845 
C503     C      0.758780000000     0.423600000000     0.285460000000    -0.0131758  
C504     C      0.716700000000     0.419780000000     0.237840000000    -0.0114221  
C505     C      0.693900000000     0.146930000000     0.030250000000    -0.0130566  
C506     C      0.742570000000     0.144020000000     0.068670000000    -0.0110136  
C507     C      0.716750000000     0.165520000000     0.503500000000    -0.00727453 
C508     C      0.764620000000     0.164860000000     0.544170000000    -0.00678693 
C509     C      0.718890000000     0.390010000000     0.035160000000    -0.0058919  
C510     C      0.760410000000     0.390840000000     0.490400000000    -0.00862682 
C511     C      0.700170000000     0.415700000000     0.015140000000    -0.0135987  
C512     C      0.744500000000     0.421590000000     0.475630000000    -0.011858   
C513     C      0.716010000000     0.292320000000     0.371570000000    -0.0153865  
C514     C      0.765430000000     0.261530000000     0.370310000000    -0.0196089  
C515     C      0.721030000000     0.298850000000     0.411100000000    -0.018596   
C516     C      0.770520000000     0.268210000000     0.409670000000    -0.0153501  
C517     C      0.716030000000     0.290900000000     0.120760000000    -0.0157948  
C518     C      0.764120000000     0.258050000000     0.121050000000    -0.0170457  
C519     C      0.720480000000     0.297840000000     0.160090000000    -0.0192694  
C520     C      0.768490000000     0.264770000000     0.160540000000    -0.0160242  
C521     C      0.522690000000     0.117130000000     0.252370000000    -0.0131265  
C522     C      0.471850000000     0.121420000000     0.217460000000    -0.0117602  
C523     C      0.010380000000     0.142820000000     0.278040000000    -0.00674777 
C524     C      0.960720000000     0.149490000000     0.240670000000    -0.00703601 
C525     C      0.489300000000     0.396680000000     0.310750000000    -0.00957933 
C526     C      0.945300000000     0.393950000000     0.266250000000    -0.0128605  
C527     C      0.508330000000     0.370820000000     0.291000000000    -0.00878783 
C528     C      0.965070000000     0.369840000000     0.244510000000    -0.00821048 
C529     C      0.853190000000     0.275270000000     0.228630000000    -0.00899456 
C530     C      0.854930000000     0.281200000000     0.293930000000    -0.00836593 
C531     C      0.880330000000     0.250260000000     0.230740000000    -0.00882592 
C532     C      0.880900000000     0.255180000000     0.295970000000    -0.00937857 
C533     C      0.605440000000     0.257360000000     0.299110000000    -0.00876822 
C534     C      0.605070000000     0.262390000000     0.233700000000    -0.00940199 
C535     C      0.630190000000     0.284810000000     0.301440000000    -0.00924183 
C536     C      0.629240000000     0.290150000000     0.236380000000    -0.00788837 
C537     C      0.989810000000     0.129100000000     0.463510000000    -0.0103321  
C538     C      0.946720000000     0.133790000000     0.009690000000    -0.0141972  
C539     C      0.506840000000     0.156290000000     0.482970000000    -0.00734353 
C540     C      0.464350000000     0.157650000000     0.033750000000    -0.00663811 
C541     C      0.518860000000     0.381870000000     0.037190000000    -0.00677719 
C542     C      0.538070000000     0.375200000000     0.503180000000    -0.00629476 
C543     C      0.999330000000     0.407470000000     0.057110000000    -0.0123501  
C544     C      0.025490000000     0.409570000000     0.496410000000    -0.0141714  
C545     C      0.855120000000     0.272740000000     0.046130000000    -0.00811742 
C546     C      0.855420000000     0.268860000000     0.479650000000    -0.00940189 
C547     C      0.885260000000     0.293000000000     0.040680000000    -0.00905595 
C548     C      0.886410000000     0.289020000000     0.477710000000    -0.00902883 
C549     C      0.606160000000     0.255670000000     0.049650000000    -0.00887848 
C550     C      0.607160000000     0.247800000000     0.486890000000    -0.00733406 
C551     C      0.632080000000     0.281910000000     0.052550000000    -0.00868654 
C552     C      0.631640000000     0.275200000000     0.487460000000    -0.00873571 
C553     C      0.516030000000     0.243130000000     0.410150000000    -0.019486   
C554     C      0.970760000000     0.279760000000     0.408490000000    -0.0165565  
C555     C      0.521040000000     0.247810000000     0.370380000000    -0.0159591  
C556     C      0.975660000000     0.284210000000     0.368590000000    -0.0179659  
C557     C      0.974570000000     0.242780000000     0.118030000000    -0.0162186  
C558     C      0.519050000000     0.280680000000     0.120940000000    -0.0154998  
C559     C      0.967180000000     0.249070000000     0.157090000000    -0.0149475  
C560     C      0.511590000000     0.286990000000     0.160030000000    -0.0153706  
C561     C      0.999040000000     0.329630000000     0.013600000000     0.469888   
C562     C      0.486730000000     0.206260000000     0.509730000000     0.475639   
C563     C      0.555500000000     0.254980000000     0.517930000000     0.47235    
C564     C      0.934930000000     0.275500000000     0.010680000000     0.47262    
C565     C      0.997160000000     0.313980000000     0.766210000000     0.463939   
C566     C      0.498220000000     0.191820000000     0.763520000000     0.469753   
C567     C      0.557620000000     0.254310000000     0.767210000000     0.469041   
C568     C      0.935630000000     0.251760000000     0.762300000000     0.470233   
C569     C      0.743840000000     0.340600000000     0.012470000000     0.467611   
C570     C      0.744030000000     0.216150000000     0.519620000000     0.469041   
C571     C      0.804910000000     0.276700000000     0.513110000000     0.470725   
C572     C      0.682920000000     0.282240000000     0.018510000000     0.473175   
C573     C      0.749840000000     0.337730000000     0.757380000000     0.472962   
C574     C      0.740810000000     0.216790000000     0.772580000000     0.47172    
C575     C      0.805980000000     0.273620000000     0.763450000000     0.471537   
C576     C      0.684380000000     0.281910000000     0.768000000000     0.473216   
C577     C      0.974630000000     0.455750000000     0.029230000000     0.39985    
C578     C      0.977160000000     0.079100000000     0.495940000000     0.404532   
C579     C      0.998680000000     0.033410000000     0.578050000000     0.411892   
C580     C      0.975980000000     0.501050000000     0.947200000000     0.411635   
C581     C      0.995670000000     0.444050000000     0.777540000000     0.401086   
C582     C      0.015920000000     0.067120000000     0.742820000000     0.402381   
C583     C      0.000130000000     0.024760000000     0.825100000000     0.412217   
C584     C      0.011300000000     0.488180000000     0.694390000000     0.411978   
C585     C      0.722490000000     0.470220000000     0.006620000000     0.399073   
C586     C      0.720750000000     0.092480000000     0.545140000000     0.400328   
C587     C      0.723870000000     0.012130000000     0.592620000000     0.412069   
C588     C      0.718720000000     0.550900000000     0.960730000000     0.412642   
C589     C      0.739270000000     0.469400000000     0.760890000000     0.402184   
C590     C      0.722280000000     0.092690000000     0.795650000000     0.402774   
C591     C      0.728410000000     0.013000000000     0.842960000000     0.41318    
C592     C      0.732860000000     0.549260000000     0.711830000000     0.412777   
C593     C      0.690550000000     0.046270000000     0.905280000000    -0.0102049  
C594     C      0.750030000000     0.053730000000     0.907590000000    -0.00934494 
C595     C      0.695290000000     0.510510000000     0.895290000000    -0.0103848  
C596     C      0.754780000000     0.017750000000     0.899060000000    -0.00954717 
C597     C      0.702720000000     0.553110000000     0.657880000000    -0.00776427 
C598     C      0.762080000000     0.044460000000     0.657000000000    -0.0119932  
C599     C      0.697240000000     0.517470000000     0.648500000000    -0.0100372  
C600     C      0.756640000000     0.009140000000     0.645560000000    -0.0102601  
C601     C      0.521500000000     0.521820000000     0.884050000000    -0.0103436  
C602     C      0.964200000000     0.037350000000     0.873810000000    -0.00949201 
C603     C      0.510530000000     0.488830000000     0.897650000000    -0.00861468 
C604     C      0.953100000000     0.004730000000     0.888690000000    -0.0120482  
C605     C      0.541120000000     0.496980000000     0.639950000000    -0.013027   
C606     C      0.982160000000     0.486850000000     0.640050000000    -0.0069906  
C607     C      0.534800000000     0.032570000000     0.629140000000    -0.0117031  
C608     C      0.975740000000     0.023020000000     0.634780000000    -0.00922952 
C609     C      0.714270000000     0.165510000000     0.756730000000    -0.00745763 
C610     C      0.759750000000     0.166700000000     0.800800000000    -0.00763925 
C611     C      0.695100000000     0.143730000000     0.781640000000    -0.0131367  
C612     C      0.740990000000     0.143100000000     0.823770000000    -0.00968806 
C613     C      0.777070000000     0.388710000000     0.772850000000    -0.00652354 
C614     C      0.737170000000     0.387060000000     0.723810000000    -0.0066968  
C615     C      0.762820000000     0.420680000000     0.785500000000    -0.0133485  
C616     C      0.720420000000     0.417220000000     0.738130000000    -0.0116364  
C617     C      0.697780000000     0.145570000000     0.530270000000    -0.0133629  
C618     C      0.746340000000     0.142130000000     0.568770000000    -0.0110577  
C619     C      0.712260000000     0.168190000000     0.004110000000    -0.00810091 
C620     C      0.760360000000     0.167300000000     0.044340000000    -0.00653111 
C621     C      0.716390000000     0.387430000000     0.535890000000    -0.00592201 
C622     C      0.763090000000     0.393220000000     0.989750000000    -0.00771708 
C623     C      0.698190000000     0.414200000000     0.516820000000    -0.0124571  
C624     C      0.746960000000     0.423850000000     0.974750000000    -0.0121599  
C625     C      0.719880000000     0.295730000000     0.870780000000    -0.0155267  
C626     C      0.764290000000     0.257930000000     0.871440000000    -0.0188516  
C627     C      0.725240000000     0.302600000000     0.910190000000    -0.0178928  
C628     C      0.769670000000     0.264840000000     0.910730000000    -0.0154312  
C629     C      0.717280000000     0.286950000000     0.621110000000    -0.015971   
C630     C      0.766830000000     0.256400000000     0.620740000000    -0.0170192  
C631     C      0.721910000000     0.294170000000     0.660360000000    -0.0194073  
C632     C      0.771360000000     0.263330000000     0.660200000000    -0.016094   
C633     C      0.542110000000     0.118110000000     0.759830000000    -0.01361    
C634     C      0.498600000000     0.118060000000     0.714730000000    -0.0102469  
C635     C      0.021730000000     0.140150000000     0.783470000000    -0.00767276 
C636     C      0.978560000000     0.141120000000     0.737020000000    -0.00682839 
C637     C      0.511750000000     0.392970000000     0.806690000000    -0.0110744  
C638     C      0.963840000000     0.394660000000     0.766900000000    -0.0125423  
C639     C      0.524370000000     0.363070000000     0.787460000000    -0.00842184 
C640     C      0.977840000000     0.366880000000     0.745130000000    -0.00763024 
C641     C      0.856380000000     0.271140000000     0.728710000000    -0.00931935 
C642     C      0.858330000000     0.276400000000     0.794090000000    -0.00887329 
C643     C      0.883840000000     0.246400000000     0.730380000000    -0.00900333 
C644     C      0.884580000000     0.250610000000     0.795640000000    -0.00926941 
C645     C      0.609270000000     0.253840000000     0.799890000000    -0.00896189 
C646     C      0.608890000000     0.258410000000     0.734430000000    -0.00972555 
C647     C      0.633440000000     0.281850000000     0.802000000000    -0.00924778 
C648     C      0.632280000000     0.286840000000     0.736930000000    -0.0077213  
C649     C      0.995290000000     0.130300000000     0.971010000000    -0.0116724  
C650     C      0.945970000000     0.128390000000     0.508150000000    -0.0129491  
C651     C      0.512260000000     0.155760000000     0.993300000000    -0.00528021 
C652     C      0.463300000000     0.154570000000     0.529410000000    -0.00662862 
C653     C      0.507390000000     0.373480000000     0.559240000000    -0.00642168 
C654     C      0.475690000000     0.380020000000     0.990920000000    -0.00578805 
C655     C      0.989850000000     0.404540000000     0.550060000000    -0.0107221  
C656     C      0.954490000000     0.401740000000     0.013610000000    -0.0142386  
C657     C      0.856280000000     0.273970000000     0.545310000000    -0.00866984 
C658     C      0.853310000000     0.260760000000     0.981780000000    -0.00821962 
C659     C      0.886150000000     0.295130000000     0.542570000000    -0.00821996 
C660     C      0.884360000000     0.280080000000     0.976700000000    -0.00846447 
C661     C      0.605850000000     0.246580000000     0.552010000000    -0.0091341  
C662     C      0.606760000000     0.261560000000     0.984550000000    -0.00728384 
C663     C      0.632650000000     0.272250000000     0.553190000000    -0.0094948  
C664     C      0.631240000000     0.288840000000     0.987400000000    -0.00813425 
C665     C      0.516970000000     0.241030000000     0.911160000000    -0.0178037  
C666     C      0.969570000000     0.274770000000     0.906970000000    -0.0145337  
C667     C      0.523020000000     0.245330000000     0.871570000000    -0.0157551  
C668     C      0.975610000000     0.279040000000     0.867350000000    -0.0192003  
C669     C      0.981070000000     0.232020000000     0.619330000000    -0.0135121  
C670     C      0.516920000000     0.278310000000     0.621420000000    -0.016546   
C671     C      0.973370000000     0.236790000000     0.658590000000    -0.0170199  
C672     C      0.508990000000     0.283270000000     0.660500000000    -0.0152642  
C673     C      0.008940000000     0.825520000000     0.521100000000     0.478809   
C674     C      0.490420000000     0.707900000000     0.013640000000     0.471659   
C675     C      0.555230000000     0.763400000000     0.016770000000     0.473734   
C676     C      0.936170000000     0.778990000000     0.512130000000     0.474666   
C677     C      0.989780000000     0.819160000000     0.265680000000     0.463637   
C678     C      0.490850000000     0.697020000000     0.261520000000     0.466844   
C679     C      0.553780000000     0.759040000000     0.266550000000     0.473328   
C680     C      0.931940000000     0.756460000000     0.262700000000     0.468873   
C681     C      0.741390000000     0.838180000000     0.512580000000     0.467802   
C682     C      0.739950000000     0.718770000000     0.020320000000     0.4694     
C683     C      0.803720000000     0.775380000000     0.013990000000     0.474718   
C684     C      0.683460000000     0.774920000000     0.519000000000     0.470259   
C685     C      0.746060000000     0.840250000000     0.257780000000     0.473127   
C686     C      0.737940000000     0.719190000000     0.272060000000     0.472761   
C687     C      0.802710000000     0.777230000000     0.263220000000     0.475158   
C688     C      0.681180000000     0.784400000000     0.267600000000     0.473381   
C689     C      0.004310000000     0.956820000000     0.525690000000     0.404089   
C690     C      0.971470000000     0.580840000000     0.996930000000     0.40194    
C691     C      0.971120000000     0.533580000000     0.079290000000     0.411979   
C692     C      0.983990000000     0.000520000000     0.446810000000     0.41375    
C693     C      0.971680000000     0.945790000000     0.279230000000     0.401151   
C694     C      0.989890000000     0.568440000000     0.241140000000     0.399346   
C695     C      0.979200000000     0.527440000000     0.324210000000     0.413537   
C696     C      0.981180000000     0.988070000000     0.194110000000     0.412035   
C697     C      0.721550000000     0.968350000000     0.507950000000     0.399567   
C698     C      0.718240000000     0.594160000000     0.044200000000     0.400793   
C699     C      0.722420000000     0.513960000000     0.091600000000     0.411912   
C700     C      0.718730000000     0.049370000000     0.461930000000     0.412608   
C701     C      0.735540000000     0.972100000000     0.260120000000     0.402302   
C702     C      0.718710000000     0.595360000000     0.294880000000     0.403312   
C703     C      0.724960000000     0.515410000000     0.342030000000     0.413062   
C704     C      0.729120000000     0.051820000000     0.210890000000     0.412137   
C705     C      0.689250000000     0.547500000000     0.406980000000    -0.0102194  
C706     C      0.749010000000     0.552950000000     0.408110000000    -0.0094942  
C707     C      0.692610000000     0.012160000000     0.394940000000    -0.0108057  
C708     C      0.752380000000     0.517270000000     0.397770000000    -0.0091225  
C709     C      0.699330000000     0.054510000000     0.156560000000    -0.00807401 
C710     C      0.758900000000     0.547430000000     0.156350000000    -0.0117673  
C711     C      0.694890000000     0.018740000000     0.147100000000    -0.0101299  
C712     C      0.754500000000     0.511930000000     0.145060000000    -0.0100948  
C713     C      0.509440000000     0.031950000000     0.377780000000    -0.00822223 
C714     C      0.949430000000     0.531850000000     0.379030000000    -0.011194   
C715     C      0.509800000000     0.996890000000     0.390460000000    -0.00755583 
C716     C      0.949810000000     0.497620000000     0.394990000000    -0.0116738  
C717     C      0.509470000000     0.997920000000     0.140070000000    -0.0118907  
C718     C      0.950770000000     0.985850000000     0.140100000000    -0.00770754 
C719     C      0.502020000000     0.533890000000     0.133290000000    -0.00934139 
C720     C      0.943210000000     0.521770000000     0.133420000000    -0.0104457  
C721     C      0.711380000000     0.668020000000     0.255880000000    -0.00747735 
C722     C      0.756640000000     0.668950000000     0.300210000000    -0.00751522 
C723     C      0.691880000000     0.646520000000     0.280760000000    -0.0130956  
C724     C      0.737540000000     0.645630000000     0.323180000000    -0.009695   
C725     C      0.772910000000     0.891360000000     0.273460000000    -0.006702   
C726     C      0.733420000000     0.889430000000     0.224020000000    -0.00653093 
C727     C      0.758780000000     0.923600000000     0.285460000000    -0.0131852  
C728     C      0.716700000000     0.919780000000     0.237840000000    -0.0114928  
C729     C      0.693900000000     0.646930000000     0.030250000000    -0.0131619  
C730     C      0.742570000000     0.644020000000     0.068670000000    -0.0109696  
C731     C      0.716750000000     0.665520000000     0.503500000000    -0.0072602  
C732     C      0.764610000000     0.664860000000     0.544170000000    -0.00666805 
C733     C      0.718890000000     0.890010000000     0.035160000000    -0.00588238 
C734     C      0.760410000000     0.890840000000     0.490400000000    -0.00861241 
C735     C      0.700170000000     0.915700000000     0.015140000000    -0.0136281  
C736     C      0.744510000000     0.921590000000     0.475630000000    -0.0118702  
C737     C      0.716010000000     0.792320000000     0.371570000000    -0.0154026  
C738     C      0.765430000000     0.761530000000     0.370310000000    -0.0195964  
C739     C      0.721030000000     0.798850000000     0.411100000000    -0.0185911  
C740     C      0.770520000000     0.768210000000     0.409670000000    -0.0153558  
C741     C      0.716030000000     0.790900000000     0.120760000000    -0.0158192  
C742     C      0.764120000000     0.758050000000     0.121050000000    -0.0170466  
C743     C      0.720480000000     0.797840000000     0.160090000000    -0.0192623  
C744     C      0.768490000000     0.764770000000     0.160540000000    -0.0160241  
C745     C      0.522690000000     0.617130000000     0.252370000000    -0.0131522  
C746     C      0.471850000000     0.621420000000     0.217460000000    -0.0117492  
C747     C      0.010380000000     0.642820000000     0.278040000000    -0.0067501  
C748     C      0.960720000000     0.649490000000     0.240670000000    -0.00703777 
C749     C      0.489300000000     0.896680000000     0.310750000000    -0.00954546 
C750     C      0.945300000000     0.893950000000     0.266250000000    -0.0128757  
C751     C      0.508330000000     0.870820000000     0.291000000000    -0.00879572 
C752     C      0.965070000000     0.869840000000     0.244510000000    -0.00817996 
C753     C      0.853190000000     0.775270000000     0.228630000000    -0.00901158 
C754     C      0.854930000000     0.781200000000     0.293930000000    -0.00838452 
C755     C      0.880330000000     0.750260000000     0.230740000000    -0.00882306 
C756     C      0.880900000000     0.755180000000     0.295970000000    -0.00937498 
C757     C      0.605440000000     0.757360000000     0.299110000000    -0.00876779 
C758     C      0.605070000000     0.762390000000     0.233700000000    -0.00940744 
C759     C      0.630190000000     0.784810000000     0.301440000000    -0.009246   
C760     C      0.629240000000     0.790150000000     0.236380000000    -0.00788667 
C761     C      0.989810000000     0.629100000000     0.463510000000    -0.010284   
C762     C      0.946720000000     0.633790000000     0.009690000000    -0.0141999  
C763     C      0.506840000000     0.656290000000     0.482970000000    -0.00737122 
C764     C      0.464350000000     0.657650000000     0.033750000000    -0.00663359 
C765     C      0.518860000000     0.881870000000     0.037190000000    -0.00676839 
C766     C      0.538070000000     0.875200000000     0.503180000000    -0.00626846 
C767     C      0.999330000000     0.907470000000     0.057110000000    -0.0123467  
C768     C      0.025490000000     0.909570000000     0.496410000000    -0.0141704  
C769     C      0.855120000000     0.772740000000     0.046130000000    -0.00811687 
C770     C      0.855420000000     0.768860000000     0.479650000000    -0.00941215 
C771     C      0.885260000000     0.793000000000     0.040680000000    -0.0090584  
C772     C      0.886420000000     0.789020000000     0.477710000000    -0.00901343 
C773     C      0.606160000000     0.755670000000     0.049650000000    -0.00888146 
C774     C      0.607160000000     0.747800000000     0.486890000000    -0.00733572 
C775     C      0.632090000000     0.781910000000     0.052550000000    -0.00870832 
C776     C      0.631640000000     0.775200000000     0.487460000000    -0.00873598 
C777     C      0.516030000000     0.743130000000     0.410150000000    -0.0194696  
C778     C      0.970760000000     0.779760000000     0.408490000000    -0.0165534  
C779     C      0.521050000000     0.747810000000     0.370380000000    -0.0159902  
C780     C      0.975660000000     0.784210000000     0.368590000000    -0.0179692  
C781     C      0.974570000000     0.742780000000     0.118030000000    -0.016238   
C782     C      0.519050000000     0.780680000000     0.120940000000    -0.0155007  
C783     C      0.967180000000     0.749070000000     0.157090000000    -0.0149388  
C784     C      0.511590000000     0.786990000000     0.160030000000    -0.0153423  
C785     C      0.999040000000     0.829630000000     0.013600000000     0.46985    
C786     C      0.486730000000     0.706260000000     0.509730000000     0.475615   
C787     C      0.555500000000     0.754980000000     0.517930000000     0.472327   
C788     C      0.934930000000     0.775500000000     0.010680000000     0.472617   
C789     C      0.997160000000     0.813980000000     0.766210000000     0.464011   
C790     C      0.498210000000     0.691820000000     0.763520000000     0.46973    
C791     C      0.557620000000     0.754310000000     0.767210000000     0.469086   
C792     C      0.935630000000     0.751760000000     0.762300000000     0.470348   
C793     C      0.743840000000     0.840600000000     0.012470000000     0.46762    
C794     C      0.744030000000     0.716150000000     0.519620000000     0.468972   
C795     C      0.804910000000     0.776700000000     0.513110000000     0.470726   
C796     C      0.682930000000     0.782240000000     0.018510000000     0.473302   
C797     C      0.749840000000     0.837730000000     0.757380000000     0.472951   
C798     C      0.740810000000     0.716790000000     0.772580000000     0.471719   
C799     C      0.805980000000     0.773620000000     0.763450000000     0.471467   
C800     C      0.684380000000     0.781910000000     0.768000000000     0.473357   
C801     C      0.974630000000     0.955750000000     0.029230000000     0.399824   
C802     C      0.977160000000     0.579100000000     0.495940000000     0.404679   
C803     C      0.998680000000     0.533410000000     0.578050000000     0.411936   
C804     C      0.975980000000     0.001050000000     0.947200000000     0.411437   
C805     C      0.995670000000     0.944050000000     0.777540000000     0.400825   
C806     C      0.015920000000     0.567120000000     0.742820000000     0.402365   
C807     C      0.000130000000     0.524750000000     0.825100000000     0.412291   
C808     C      0.011300000000     0.988180000000     0.694390000000     0.411952   
C809     C      0.722490000000     0.970220000000     0.006620000000     0.399133   
C810     C      0.720750000000     0.592480000000     0.545140000000     0.400569   
C811     C      0.723880000000     0.512130000000     0.592620000000     0.41235    
C812     C      0.718720000000     0.050900000000     0.960730000000     0.412618   
C813     C      0.739270000000     0.969400000000     0.760890000000     0.402155   
C814     C      0.722280000000     0.592690000000     0.795650000000     0.402789   
C815     C      0.728410000000     0.513000000000     0.842960000000     0.413462   
C816     C      0.732860000000     0.049260000000     0.711830000000     0.412512   
C817     C      0.690550000000     0.546270000000     0.905280000000    -0.0102569  
C818     C      0.750030000000     0.553730000000     0.907590000000    -0.00934514 
C819     C      0.695290000000     0.010520000000     0.895290000000    -0.0105968  
C820     C      0.754780000000     0.517750000000     0.899060000000    -0.00953239 
C821     C      0.702720000000     0.053110000000     0.657880000000    -0.00777322 
C822     C      0.762070000000     0.544460000000     0.657000000000    -0.011953   
C823     C      0.697240000000     0.017470000000     0.648500000000    -0.0100338  
C824     C      0.756640000000     0.509140000000     0.645560000000    -0.0100322  
C825     C      0.521500000000     0.021820000000     0.884050000000    -0.0105055  
C826     C      0.964200000000     0.537350000000     0.873810000000    -0.0096135  
C827     C      0.510530000000     0.988830000000     0.897650000000    -0.00843284 
C828     C      0.953100000000     0.504730000000     0.888690000000    -0.0116513  
C829     C      0.541120000000     0.996980000000     0.639950000000    -0.0128197  
C830     C      0.982160000000     0.986850000000     0.640050000000    -0.00678193 
C831     C      0.534800000000     0.532570000000     0.629140000000    -0.0114967  
C832     C      0.975740000000     0.523020000000     0.634780000000    -0.00897524 
C833     C      0.714270000000     0.665510000000     0.756730000000    -0.00750289 
C834     C      0.759750000000     0.666700000000     0.800800000000    -0.00758737 
C835     C      0.695100000000     0.643730000000     0.781640000000    -0.0131528  
C836     C      0.740990000000     0.643100000000     0.823770000000    -0.00970999 
C837     C      0.777070000000     0.888710000000     0.772850000000    -0.00652182 
C838     C      0.737170000000     0.887060000000     0.723810000000    -0.00669619 
C839     C      0.762820000000     0.920680000000     0.785500000000    -0.0133526  
C840     C      0.720420000000     0.917220000000     0.738130000000    -0.0116403  
C841     C      0.697780000000     0.645570000000     0.530270000000    -0.0134081  
C842     C      0.746340000000     0.642130000000     0.568770000000    -0.0110466  
C843     C      0.712270000000     0.668190000000     0.004110000000    -0.0080229  
C844     C      0.760360000000     0.667310000000     0.044340000000    -0.00650835 
C845     C      0.716390000000     0.887430000000     0.535890000000    -0.0059032  
C846     C      0.763090000000     0.893220000000     0.989750000000    -0.00771481 
C847     C      0.698190000000     0.914200000000     0.516820000000    -0.0125002  
C848     C      0.746960000000     0.923850000000     0.974750000000    -0.0121579  
C849     C      0.719880000000     0.795730000000     0.870780000000    -0.0155117  
C850     C      0.764290000000     0.757930000000     0.871440000000    -0.0188495  
C851     C      0.725240000000     0.802600000000     0.910190000000    -0.017873   
C852     C      0.769670000000     0.764840000000     0.910730000000    -0.0154311  
C853     C      0.717290000000     0.786950000000     0.621110000000    -0.0158523  
C854     C      0.766830000000     0.756400000000     0.620740000000    -0.0169858  
C855     C      0.721910000000     0.794170000000     0.660360000000    -0.0194435  
C856     C      0.771360000000     0.763330000000     0.660200000000    -0.016193   
C857     C      0.542110000000     0.618110000000     0.759830000000    -0.0136146  
C858     C      0.498610000000     0.618060000000     0.714730000000    -0.0102356  
C859     C      0.021730000000     0.640150000000     0.783470000000    -0.00765257 
C860     C      0.978550000000     0.641120000000     0.737020000000    -0.00691027 
C861     C      0.511750000000     0.892970000000     0.806690000000    -0.0110795  
C862     C      0.963840000000     0.894660000000     0.766900000000    -0.0125454  
C863     C      0.524370000000     0.863070000000     0.787460000000    -0.00841263 
C864     C      0.977840000000     0.866880000000     0.745130000000    -0.00765579 
C865     C      0.856380000000     0.771140000000     0.728710000000    -0.0093219  
C866     C      0.858330000000     0.776400000000     0.794090000000    -0.00888163 
C867     C      0.883840000000     0.746400000000     0.730380000000    -0.00900449 
C868     C      0.884580000000     0.750610000000     0.795640000000    -0.00926823 
C869     C      0.609270000000     0.753840000000     0.799890000000    -0.00899286 
C870     C      0.608890000000     0.758410000000     0.734430000000    -0.00973876 
C871     C      0.633440000000     0.781850000000     0.802000000000    -0.009232   
C872     C      0.632280000000     0.786840000000     0.736930000000    -0.00771109 
C873     C      0.995290000000     0.630300000000     0.971010000000    -0.0116892  
C874     C      0.945970000000     0.628390000000     0.508150000000    -0.0129936  
C875     C      0.512260000000     0.655760000000     0.993300000000    -0.00524881 
C876     C      0.463300000000     0.654570000000     0.529410000000    -0.00664477 
C877     C      0.507390000000     0.873480000000     0.559240000000    -0.00638371 
C878     C      0.475690000000     0.880020000000     0.990920000000    -0.00583513 
C879     C      0.989860000000     0.904540000000     0.550060000000    -0.0105861  
C880     C      0.954490000000     0.901740000000     0.013610000000    -0.0141937  
C881     C      0.856280000000     0.773970000000     0.545310000000    -0.00865817 
C882     C      0.853310000000     0.760760000000     0.981780000000    -0.00823236 
C883     C      0.886150000000     0.795130000000     0.542570000000    -0.0082345  
C884     C      0.884360000000     0.780080000000     0.976700000000    -0.00845297 
C885     C      0.605860000000     0.746580000000     0.552010000000    -0.00916298 
C886     C      0.606760000000     0.761560000000     0.984550000000    -0.00726027 
C887     C      0.632650000000     0.772250000000     0.553190000000    -0.00948228 
C888     C      0.631230000000     0.788840000000     0.987400000000    -0.00819467 
C889     C      0.516970000000     0.741030000000     0.911160000000    -0.0177992  
C890     C      0.969570000000     0.774770000000     0.906970000000    -0.0145317  
C891     C      0.523020000000     0.745330000000     0.871570000000    -0.0157639  
C892     C      0.975610000000     0.779040000000     0.867350000000    -0.0192054  
C893     C      0.981070000000     0.732020000000     0.619330000000    -0.0135397  
C894     C      0.516920000000     0.778310000000     0.621420000000    -0.0165416  
C895     C      0.973370000000     0.736800000000     0.658590000000    -0.0169484  
C896     C      0.508990000000     0.783270000000     0.660500000000    -0.0152865  
Cu1      Cu     0.993950000000     0.269090000000     0.051670000000     1.18869    
Cu2      Cu     0.498400000000     0.269300000000     0.476790000000     1.19877    
Cu3      Cu     0.993520000000     0.256750000000     0.302230000000     1.18601    
Cu4      Cu     0.492220000000     0.259360000000     0.226280000000     1.19921    
Cu5      Cu     0.244490000000     0.281160000000     0.053800000000     1.21785    
Cu6      Cu     0.242920000000     0.275810000000     0.477960000000     1.18401    
Cu7      Cu     0.244090000000     0.283150000000     0.303290000000     1.19743    
Cu8      Cu     0.239700000000     0.276240000000     0.227550000000     1.2147     
Cu9      Cu     0.002740000000     0.019220000000     0.014240000000     0.856381   
Cu10     Cu     0.462130000000     0.513020000000     0.517250000000     0.868202   
Cu11     Cu     0.009790000000     0.003230000000     0.261480000000     0.865107   
Cu12     Cu     0.450900000000     0.510710000000     0.257500000000     0.853804   
Cu13     Cu     0.250070000000     0.033220000000     0.025620000000     0.850826   
Cu14     Cu     0.191600000000     0.529860000000     0.528040000000     0.863277   
Cu15     Cu     0.256600000000     0.037300000000     0.279090000000     0.861384   
Cu16     Cu     0.197660000000     0.530480000000     0.274120000000     0.863217   
Cu17     Cu     0.993010000000     0.263300000000     0.552780000000     1.22667    
Cu18     Cu     0.496060000000     0.268490000000     0.975930000000     1.21527    
Cu19     Cu     0.997130000000     0.251930000000     0.802650000000     1.1916     
Cu20     Cu     0.496110000000     0.253790000000     0.727050000000     1.19282    
Cu21     Cu     0.245330000000     0.278600000000     0.553680000000     1.2036     
Cu22     Cu     0.242230000000     0.278010000000     0.978180000000     1.18163    
Cu23     Cu     0.247390000000     0.280940000000     0.803380000000     1.1965     
Cu24     Cu     0.242810000000     0.273620000000     0.727680000000     1.20941    
Cu25     Cu     0.019950000000     0.023350000000     0.506760000000     0.861311   
Cu26     Cu     0.443600000000     0.517360000000     0.011710000000     0.855761   
Cu27     Cu     0.035230000000     0.001890000000     0.764340000000     0.841373   
Cu28     Cu     0.476800000000     0.509270000000     0.755810000000     0.874543   
Cu29     Cu     0.250850000000     0.030790000000     0.526150000000     0.851368   
Cu30     Cu     0.190840000000     0.530990000000     0.026390000000     0.862367   
Cu31     Cu     0.260250000000     0.034620000000     0.780020000000     0.859145   
Cu32     Cu     0.201340000000     0.527750000000     0.774900000000     0.865377   
Cu33     Cu     0.993950000000     0.769080000000     0.051670000000     1.18867    
Cu34     Cu     0.498400000000     0.769300000000     0.476790000000     1.19854    
Cu35     Cu     0.993520000000     0.756750000000     0.302230000000     1.18601    
Cu36     Cu     0.492220000000     0.759360000000     0.226280000000     1.19925    
Cu37     Cu     0.244490000000     0.781160000000     0.053800000000     1.21781    
Cu38     Cu     0.242920000000     0.775810000000     0.477960000000     1.18401    
Cu39     Cu     0.244100000000     0.783150000000     0.303290000000     1.19749    
Cu40     Cu     0.239700000000     0.776240000000     0.227550000000     1.2147     
Cu41     Cu     0.002740000000     0.519220000000     0.014240000000     0.856558   
Cu42     Cu     0.462130000000     0.013020000000     0.517250000000     0.868014   
Cu43     Cu     0.009790000000     0.503230000000     0.261480000000     0.865461   
Cu44     Cu     0.450900000000     0.010710000000     0.257500000000     0.853379   
Cu45     Cu     0.250070000000     0.533220000000     0.025620000000     0.851089   
Cu46     Cu     0.191600000000     0.029860000000     0.528040000000     0.863137   
Cu47     Cu     0.256600000000     0.537300000000     0.279090000000     0.861558   
Cu48     Cu     0.197660000000     0.030480000000     0.274120000000     0.863094   
Cu49     Cu     0.993010000000     0.763300000000     0.552780000000     1.22688    
Cu50     Cu     0.496060000000     0.768490000000     0.975930000000     1.21548    
Cu51     Cu     0.997130000000     0.751930000000     0.802650000000     1.19141    
Cu52     Cu     0.496110000000     0.753790000000     0.727050000000     1.1929     
Cu53     Cu     0.245330000000     0.778600000000     0.553680000000     1.20339    
Cu54     Cu     0.242230000000     0.778010000000     0.978180000000     1.18179    
Cu55     Cu     0.247390000000     0.780940000000     0.803380000000     1.19647    
Cu56     Cu     0.242810000000     0.773620000000     0.727680000000     1.20941    
Cu57     Cu     0.019950000000     0.523350000000     0.506760000000     0.861486   
Cu58     Cu     0.443600000000     0.017360000000     0.011710000000     0.855582   
Cu59     Cu     0.035230000000     0.501890000000     0.764340000000     0.841702   
Cu60     Cu     0.476800000000     0.009270000000     0.755810000000     0.874172   
Cu61     Cu     0.250850000000     0.530790000000     0.526150000000     0.851552   
Cu62     Cu     0.190840000000     0.030990000000     0.026390000000     0.862211   
Cu63     Cu     0.260250000000     0.534620000000     0.780020000000     0.859269   
Cu64     Cu     0.201340000000     0.027750000000     0.774900000000     0.865235   
Cu65     Cu     0.493950000000     0.269090000000     0.051670000000     1.18904    
Cu66     Cu     0.998390000000     0.269300000000     0.476790000000     1.19821    
Cu67     Cu     0.493520000000     0.256750000000     0.302230000000     1.18621    
Cu68     Cu     0.992220000000     0.259360000000     0.226280000000     1.19903    
Cu69     Cu     0.744490000000     0.281160000000     0.053800000000     1.21781    
Cu70     Cu     0.742920000000     0.275810000000     0.477960000000     1.18401    
Cu71     Cu     0.744100000000     0.283150000000     0.303290000000     1.19749    
Cu72     Cu     0.739700000000     0.276240000000     0.227550000000     1.21469    
Cu73     Cu     0.502740000000     0.019220000000     0.014240000000     0.855988   
Cu74     Cu     0.962130000000     0.513020000000     0.517250000000     0.868032   
Cu75     Cu     0.509790000000     0.003230000000     0.261480000000     0.865035   
Cu76     Cu     0.950900000000     0.510710000000     0.257500000000     0.853506   
Cu77     Cu     0.750070000000     0.033220000000     0.025620000000     0.850834   
Cu78     Cu     0.691600000000     0.529860000000     0.528040000000     0.863309   
Cu79     Cu     0.756600000000     0.037300000000     0.279090000000     0.86139    
Cu80     Cu     0.697660000000     0.530480000000     0.274120000000     0.86324    
Cu81     Cu     0.493010000000     0.263300000000     0.552780000000     1.22721    
Cu82     Cu     0.996060000000     0.268490000000     0.975930000000     1.21507    
Cu83     Cu     0.497130000000     0.251930000000     0.802650000000     1.19231    
Cu84     Cu     0.996110000000     0.253790000000     0.727050000000     1.19255    
Cu85     Cu     0.745330000000     0.278600000000     0.553680000000     1.20364    
Cu86     Cu     0.742230000000     0.278010000000     0.978180000000     1.18161    
Cu87     Cu     0.747390000000     0.280940000000     0.803380000000     1.19629    
Cu88     Cu     0.742810000000     0.273620000000     0.727680000000     1.20964    
Cu89     Cu     0.519950000000     0.023350000000     0.506760000000     0.861128   
Cu90     Cu     0.943600000000     0.517360000000     0.011710000000     0.855577   
Cu91     Cu     0.535230000000     0.001890000000     0.764340000000     0.841198   
Cu92     Cu     0.976800000000     0.509270000000     0.755810000000     0.874453   
Cu93     Cu     0.750850000000     0.030790000000     0.526150000000     0.851342   
Cu94     Cu     0.690840000000     0.530990000000     0.026390000000     0.862363   
Cu95     Cu     0.760250000000     0.034620000000     0.780020000000     0.859114   
Cu96     Cu     0.701340000000     0.527750000000     0.774900000000     0.865428   
Cu97     Cu     0.493950000000     0.769080000000     0.051670000000     1.18922    
Cu98     Cu     0.998400000000     0.769300000000     0.476790000000     1.19807    
Cu99     Cu     0.493520000000     0.756750000000     0.302230000000     1.18617    
Cu100    Cu     0.992220000000     0.759360000000     0.226280000000     1.19907    
Cu101    Cu     0.744490000000     0.781160000000     0.053800000000     1.2178     
Cu102    Cu     0.742920000000     0.775810000000     0.477960000000     1.18401    
Cu103    Cu     0.744090000000     0.783150000000     0.303290000000     1.19762    
Cu104    Cu     0.739700000000     0.776240000000     0.227550000000     1.21469    
Cu105    Cu     0.502740000000     0.519220000000     0.014240000000     0.856164   
Cu106    Cu     0.962130000000     0.013020000000     0.517250000000     0.867835   
Cu107    Cu     0.509800000000     0.503230000000     0.261480000000     0.865406   
Cu108    Cu     0.950900000000     0.010710000000     0.257500000000     0.853225   
Cu109    Cu     0.750070000000     0.533220000000     0.025620000000     0.851096   
Cu110    Cu     0.691600000000     0.029860000000     0.528040000000     0.863122   
Cu111    Cu     0.756600000000     0.537300000000     0.279090000000     0.861538   
Cu112    Cu     0.697660000000     0.030480000000     0.274120000000     0.863094   
Cu113    Cu     0.493010000000     0.763300000000     0.552780000000     1.22702    
Cu114    Cu     0.996060000000     0.768490000000     0.975930000000     1.21528    
Cu115    Cu     0.497130000000     0.751930000000     0.802650000000     1.19171    
Cu116    Cu     0.996110000000     0.753790000000     0.727050000000     1.19258    
Cu117    Cu     0.745330000000     0.778600000000     0.553680000000     1.2036     
Cu118    Cu     0.742230000000     0.778010000000     0.978180000000     1.18181    
Cu119    Cu     0.747390000000     0.780940000000     0.803380000000     1.19631    
Cu120    Cu     0.742810000000     0.773620000000     0.727680000000     1.20943    
Cu121    Cu     0.519950000000     0.523350000000     0.506760000000     0.861375   
Cu122    Cu     0.943600000000     0.017360000000     0.011710000000     0.855399   
Cu123    Cu     0.535230000000     0.501890000000     0.764340000000     0.841486   
Cu124    Cu     0.976800000000     0.009270000000     0.755810000000     0.874023   
Cu125    Cu     0.750850000000     0.530790000000     0.526150000000     0.851634   
Cu126    Cu     0.690840000000     0.030990000000     0.026390000000     0.862208   
Cu127    Cu     0.760250000000     0.534620000000     0.780020000000     0.859336   
Cu128    Cu     0.701340000000     0.027750000000     0.774900000000     0.865215   
H1       H      0.248170000000     0.068270000000     0.384230000000     0.0421584  
H2       H      0.187740000000     0.063460000000     0.383630000000     0.0414288  
H3       H      0.171880000000     0.505220000000     0.378240000000     0.0425401  
H4       H      0.270120000000     0.060900000000     0.423710000000     0.0426825  
H5       H      0.275350000000     0.013180000000     0.383610000000     0.0422202  
H6       H      0.252900000000     0.501940000000     0.421660000000     0.0417418  
H7       H      0.166760000000     0.550730000000     0.422250000000     0.042046   
H8       H      0.192520000000     0.496050000000     0.418230000000     0.0419338  
H9       H      0.261220000000     0.062840000000     0.132650000000     0.0420934  
H10      H      0.200770000000     0.069190000000     0.132240000000     0.0416137  
H11      H      0.171900000000     0.515170000000     0.132830000000     0.0428987  
H12      H      0.281300000000     0.050060000000     0.171900000000     0.0423436  
H13      H      0.275140000000     0.004000000000     0.128730000000     0.042688   
H14      H      0.254010000000     0.496370000000     0.168770000000     0.0401784  
H15      H      0.178410000000     0.563510000000     0.171810000000     0.0419912  
H16      H      0.193670000000     0.503920000000     0.171310000000     0.0442308  
H17      H      0.449130000000     0.049930000000     0.400570000000     0.0400344  
H18      H      0.009830000000     0.048750000000     0.400500000000     0.0428006  
H19      H      0.032620000000     0.491440000000     0.404400000000     0.0414994  
H20      H      0.427320000000     0.035330000000     0.363190000000     0.0426693  
H21      H      0.429070000000     0.994580000000     0.412980000000     0.0429698  
H22      H      0.447370000000     0.479560000000     0.373600000000     0.0408971  
H23      H      0.031110000000     0.537240000000     0.361770000000     0.0416711  
H24      H      0.008350000000     0.480080000000     0.367800000000     0.0426155  
H25      H      0.452960000000     0.473010000000     0.114680000000     0.0410777  
H26      H      0.012450000000     0.485170000000     0.114690000000     0.0430649  
H27      H      0.021990000000     0.045430000000     0.118560000000     0.0427571  
H28      H      0.430920000000     0.474220000000     0.154990000000     0.0409681  
H29      H      0.420250000000     0.024160000000     0.118810000000     0.0427355  
H30      H      0.440100000000     0.034670000000     0.158660000000     0.0455503  
H31      H      0.032370000000     0.495540000000     0.154820000000     0.0425236  
H32      H      0.999920000000     0.046740000000     0.158720000000     0.0405889  
H33      H      0.273860000000     0.154410000000     0.284490000000     0.0408501  
H34      H      0.224100000000     0.152260000000     0.236810000000     0.0415448  
H35      H      0.175220000000     0.131050000000     0.265330000000     0.0407805  
H36      H      0.271000000000     0.185550000000     0.316940000000     0.0383095  
H37      H      0.254190000000     0.129340000000     0.337620000000     0.0375333  
H38      H      0.224050000000     0.160250000000     0.342680000000     0.0377118  
H39      H      0.194670000000     0.184140000000     0.241280000000     0.0391886  
H40      H      0.177400000000     0.162380000000     0.298190000000     0.0385188  
H41      H      0.251720000000     0.396780000000     0.204400000000     0.038756   
H42      H      0.293910000000     0.396650000000     0.256440000000     0.0365204  
H43      H      0.278610000000     0.439440000000     0.294880000000     0.0419983  
H44      H      0.215290000000     0.373780000000     0.210900000000     0.0380089  
H45      H      0.206640000000     0.433810000000     0.215550000000     0.0362643  
H46      H      0.196450000000     0.412390000000     0.255040000000     0.0423934  
H47      H      0.281950000000     0.377660000000     0.296450000000     0.0406427  
H48      H      0.242880000000     0.418800000000     0.308220000000     0.0401677  
H49      H      0.231220000000     0.158620000000     0.089720000000     0.038643   
H50      H      0.181060000000     0.162990000000     0.048940000000     0.0395946  
H51      H      0.200010000000     0.182070000000     0.489510000000     0.0382776  
H52      H      0.259930000000     0.127090000000     0.081110000000     0.0391245  
H53      H      0.276130000000     0.183330000000     0.060220000000     0.0372872  
H54      H      0.280150000000     0.149680000000     0.527140000000     0.0391866  
H55      H      0.175770000000     0.132260000000     0.015940000000     0.0417592  
H56      H      0.227720000000     0.148720000000     0.484190000000     0.041361   
H57      H      0.280480000000     0.398520000000     0.507670000000     0.0378075  
H58      H      0.232930000000     0.401920000000     0.056280000000     0.0418425  
H59      H      0.183490000000     0.428150000000     0.033450000000     0.0414817  
H60      H      0.271220000000     0.376640000000     0.468680000000     0.0388793  
H61      H      0.263330000000     0.439120000000     0.467410000000     0.0395183  
H62      H      0.230970000000     0.414510000000     0.451810000000     0.0369677  
H63      H      0.201530000000     0.372890000000     0.047360000000     0.0377309  
H64      H      0.185720000000     0.403640000000     0.994450000000     0.0407242  
H65      H      0.252800000000     0.237980000000     0.366930000000     0.0376883  
H66      H      0.200580000000     0.270560000000     0.367940000000     0.0322742  
H67      H      0.197180000000     0.300600000000     0.423910000000     0.0313279  
H68      H      0.289270000000     0.259570000000     0.357520000000     0.0334084  
H69      H      0.283220000000     0.247190000000     0.421360000000     0.0304955  
H70      H      0.285850000000     0.290050000000     0.413240000000     0.0334879  
H71      H      0.203430000000     0.313390000000     0.359840000000     0.0289189  
H72      H      0.233560000000     0.322420000000     0.414740000000     0.037066   
H73      H      0.250560000000     0.235080000000     0.117350000000     0.0367717  
H74      H      0.199970000000     0.269600000000     0.117170000000     0.03469    
H75      H      0.196480000000     0.301010000000     0.172210000000     0.0331282  
H76      H      0.288140000000     0.255070000000     0.108850000000     0.0300789  
H77      H      0.279820000000     0.243270000000     0.172880000000     0.0282964  
H78      H      0.284790000000     0.285850000000     0.164330000000     0.0336811  
H79      H      0.204450000000     0.312200000000     0.108310000000     0.0300278  
H80      H      0.234120000000     0.320800000000     0.163480000000     0.038566   
H81      H      0.984030000000     0.131980000000     0.194280000000     0.0389243  
H82      H      0.037050000000     0.129450000000     0.231800000000     0.0399738  
H83      H      0.031100000000     0.156520000000     0.288990000000     0.0360827  
H84      H      0.450680000000     0.107520000000     0.207970000000     0.0397034  
H85      H      0.447460000000     0.167560000000     0.224630000000     0.0387849  
H86      H      0.443480000000     0.139570000000     0.260100000000     0.0388557  
H87      H      0.038720000000     0.100090000000     0.266600000000     0.0418202  
H88      H      0.497640000000     0.130440000000     0.299800000000     0.0411244  
H89      H      0.429360000000     0.380040000000     0.284090000000     0.0388253  
H90      H      0.474720000000     0.384220000000     0.331050000000     0.0368523  
H91      H      0.021290000000     0.355130000000     0.309940000000     0.039038   
H92      H      0.430070000000     0.408810000000     0.248540000000     0.0402961  
H93      H      0.448410000000     0.353230000000     0.230500000000     0.0391965  
H94      H      0.979180000000     0.383580000000     0.224790000000     0.0407566  
H95      H      0.006070000000     0.413530000000     0.324260000000     0.0375182  
H96      H      0.026780000000     0.383350000000     0.274930000000     0.0401512  
H97      H      0.366880000000     0.305290000000     0.292950000000     0.0370188  
H98      H      0.364080000000     0.299370000000     0.223320000000     0.0371714  
H99      H      0.395270000000     0.251980000000     0.206770000000     0.040195   
H100     H      0.340390000000     0.280250000000     0.318230000000     0.0408785  
H101     H      0.396270000000     0.259990000000     0.319120000000     0.0394018  
H102     H      0.369040000000     0.231290000000     0.299760000000     0.0374213  
H103     H      0.337340000000     0.269120000000     0.206240000000     0.0377182  
H104     H      0.369280000000     0.225730000000     0.231120000000     0.0358279  
H105     H      0.118600000000     0.239470000000     0.229570000000     0.0384985  
H106     H      0.118660000000     0.233940000000     0.299030000000     0.0362383  
H107     H      0.145880000000     0.280700000000     0.324500000000     0.0377576  
H108     H      0.089530000000     0.266410000000     0.210500000000     0.03909    
H109     H      0.144130000000     0.290790000000     0.212320000000     0.0402935  
H110     H      0.115570000000     0.313290000000     0.237610000000     0.0359249  
H111     H      0.090170000000     0.257860000000     0.322890000000     0.0399391  
H112     H      0.117060000000     0.307980000000     0.305470000000     0.0369072  
H113     H      0.432880000000     0.147900000000     0.990050000000     0.0403218  
H114     H      0.473860000000     0.140260000000     0.443560000000     0.0375331  
H115     H      0.018620000000     0.172680000000     0.463790000000     0.038762   
H116     H      0.429520000000     0.119290000000     0.025490000000     0.0414768  
H117     H      0.446640000000     0.174540000000     0.045700000000     0.0355755  
H118     H      0.976320000000     0.143750000000     0.054940000000     0.0400176  
H119     H      0.007690000000     0.113720000000     0.449640000000     0.0383003  
H120     H      0.026190000000     0.145340000000     0.499140000000     0.0405566  
H121     H      0.062000000000     0.377300000000     0.515920000000     0.0349994  
H122     H      0.036950000000     0.394850000000     0.021050000000     0.0377563  
H123     H      0.515800000000     0.425380000000     0.069380000000     0.0392159  
H124     H      0.041720000000     0.362510000000     0.477890000000     0.0406479  
H125     H      0.045560000000     0.424870000000     0.486560000000     0.0412792  
H126     H      0.507390000000     0.408230000000     0.475090000000     0.0395636  
H127     H      0.532240000000     0.366380000000     0.055990000000     0.0381804  
H128     H      0.486280000000     0.394880000000     0.078500000000     0.0388874  
H129     H      0.362060000000     0.242780000000     0.478660000000     0.0370778  
H130     H      0.362520000000     0.247730000000     0.053390000000     0.03594    
H131     H      0.399950000000     0.292130000000     0.064890000000     0.041763   
H132     H      0.340600000000     0.274220000000     0.456210000000     0.0384202  
H133     H      0.400870000000     0.280710000000     0.455010000000     0.0374481  
H134     H      0.379670000000     0.314750000000     0.473160000000     0.0365158  
H135     H      0.341390000000     0.283030000000     0.068410000000     0.0406414  
H136     H      0.377890000000     0.318610000000     0.036470000000     0.0377963  
H137     H      0.120410000000     0.224400000000     0.486080000000     0.0360795  
H138     H      0.117280000000     0.222250000000     0.553280000000     0.0365939  
H139     H      0.147670000000     0.276520000000     0.075370000000     0.0387621  
H140     H      0.092570000000     0.249470000000     0.462670000000     0.0402049  
H141     H      0.146590000000     0.273620000000     0.463480000000     0.040306   
H142     H      0.118060000000     0.312240000000     0.989030000000     0.0383467  
H143     H      0.090700000000     0.256440000000     0.073280000000     0.0394502  
H144     H      0.119950000000     0.305470000000     0.057580000000     0.0355397  
H145     H      0.452850000000     0.260270000000     0.413360000000     0.0327654  
H146     H      0.500710000000     0.221460000000     0.414730000000     0.0376901  
H147     H      0.031030000000     0.225120000000     0.359210000000     0.0313935  
H148     H      0.461080000000     0.302660000000     0.419490000000     0.0291115  
H149     H      0.451950000000     0.288470000000     0.356140000000     0.0288993  
H150     H      0.990890000000     0.305890000000     0.363690000000     0.0360573  
H151     H      0.039710000000     0.238650000000     0.422550000000     0.0321369  
H152     H      0.038720000000     0.267570000000     0.365750000000     0.0354383  
H153     H      0.037580000000     0.261380000000     0.118510000000     0.0337898  
H154     H      0.990480000000     0.221260000000     0.115360000000     0.0357128  
H155     H      0.457340000000     0.226550000000     0.168800000000     0.0329698  
H156     H      0.028900000000     0.303160000000     0.109170000000     0.0304382  
H157     H      0.034370000000     0.292390000000     0.173930000000     0.0269314  
H158     H      0.495550000000     0.308410000000     0.162680000000     0.0350297  
H159     H      0.451720000000     0.237520000000     0.104190000000     0.0298623  
H160     H      0.448680000000     0.268380000000     0.159630000000     0.0344967  
H161     H      0.249230000000     0.068020000000     0.882980000000     0.0419401  
H162     H      0.189100000000     0.061090000000     0.881080000000     0.0423055  
H163     H      0.175120000000     0.502060000000     0.878590000000     0.0427194  
H164     H      0.270520000000     0.063030000000     0.923310000000     0.0424519  
H165     H      0.278130000000     0.013880000000     0.885570000000     0.0422659  
H166     H      0.255380000000     0.503430000000     0.923650000000     0.0422203  
H167     H      0.167610000000     0.549460000000     0.919760000000     0.042597   
H168     H      0.195320000000     0.495500000000     0.919410000000     0.0421973  
H169     H      0.264610000000     0.059910000000     0.633370000000     0.0421202  
H170     H      0.204320000000     0.067760000000     0.633560000000     0.0416553  
H171     H      0.173970000000     0.514510000000     0.634600000000     0.0434502  
H172     H      0.284650000000     0.046390000000     0.672370000000     0.0422814  
H173     H      0.276860000000     0.000780000000     0.628860000000     0.0424433  
H174     H      0.256080000000     0.493460000000     0.669180000000     0.0399221  
H175     H      0.182200000000     0.562690000000     0.673380000000     0.0422581  
H176     H      0.195940000000     0.502640000000     0.672690000000     0.0449025  
H177     H      0.465220000000     0.055370000000     0.895390000000     0.0396465  
H178     H      0.023070000000     0.039190000000     0.906190000000     0.0428082  
H179     H      0.028230000000     0.478990000000     0.916630000000     0.0420662  
H180     H      0.446670000000     0.046350000000     0.854180000000     0.0421551  
H181     H      0.429250000000     0.007470000000     0.901410000000     0.0430285  
H182     H      0.450530000000     0.487090000000     0.866910000000     0.0425126  
H183     H      0.045830000000     0.519870000000     0.872250000000     0.0427393  
H184     H      0.009070000000     0.471500000000     0.875450000000     0.0402647  
H185     H      0.484360000000     0.474540000000     0.614310000000     0.0411291  
H186     H      0.044540000000     0.482300000000     0.615890000000     0.0412553  
H187     H      0.054110000000     0.041100000000     0.611340000000     0.0425196  
H188     H      0.461890000000     0.475150000000     0.654190000000     0.0412222  
H189     H      0.451630000000     0.026840000000     0.622980000000     0.0427602  
H190     H      0.475600000000     0.035970000000     0.660220000000     0.0453611  
H191     H      0.063520000000     0.495450000000     0.655680000000     0.0425694  
H192     H      0.035530000000     0.047860000000     0.653030000000     0.0400264  
H193     H      0.277070000000     0.152400000000     0.784940000000     0.040776   
H194     H      0.227000000000     0.149950000000     0.737490000000     0.0416699  
H195     H      0.178510000000     0.128160000000     0.766240000000     0.0410857  
H196     H      0.274010000000     0.183390000000     0.817540000000     0.038392   
H197     H      0.257880000000     0.126910000000     0.838020000000     0.0373245  
H198     H      0.227490000000     0.157500000000     0.843440000000     0.0376069  
H199     H      0.197340000000     0.181550000000     0.742340000000     0.0391071  
H200     H      0.180560000000     0.159390000000     0.799220000000     0.0386863  
H201     H      0.255300000000     0.394690000000     0.704130000000     0.0385938  
H202     H      0.297810000000     0.394390000000     0.755600000000     0.0361986  
H203     H      0.282610000000     0.436510000000     0.795010000000     0.0419143  
H204     H      0.219020000000     0.371450000000     0.710680000000     0.0381283  
H205     H      0.210200000000     0.431440000000     0.716080000000     0.0367294  
H206     H      0.200290000000     0.409560000000     0.755360000000     0.0424755  
H207     H      0.286500000000     0.374810000000     0.795520000000     0.0402651  
H208     H      0.247110000000     0.415460000000     0.808300000000     0.0401108  
H209     H      0.235360000000     0.157180000000     0.589680000000     0.0387604  
H210     H      0.185520000000     0.162510000000     0.548510000000     0.0401974  
H211     H      0.194940000000     0.184940000000     0.991290000000     0.0384786  
H212     H      0.263360000000     0.124950000000     0.581400000000     0.0388954  
H213     H      0.280660000000     0.181010000000     0.559570000000     0.0368817  
H214     H      0.276220000000     0.153030000000     0.026770000000     0.03877    
H215     H      0.179150000000     0.131130000000     0.516440000000     0.0418901  
H216     H      0.223360000000     0.152730000000     0.983620000000     0.0414659  
H217     H      0.283270000000     0.401160000000     0.006730000000     0.037091   
H218     H      0.230610000000     0.397890000000     0.557730000000     0.0415161  
H219     H      0.182610000000     0.426920000000     0.536020000000     0.0417389  
H220     H      0.273790000000     0.378810000000     0.968140000000     0.0384559  
H221     H      0.265670000000     0.441720000000     0.967020000000     0.0395369  
H222     H      0.234050000000     0.416650000000     0.950560000000     0.0367888  
H223     H      0.198400000000     0.370330000000     0.547000000000     0.0371873  
H224     H      0.182460000000     0.403500000000     0.496380000000     0.0398202  
H225     H      0.248440000000     0.236410000000     0.868400000000     0.0370652  
H226     H      0.201520000000     0.276360000000     0.867580000000     0.0332297  
H227     H      0.201750000000     0.308250000000     0.922480000000     0.0310294  
H228     H      0.287780000000     0.252200000000     0.859180000000     0.0327909  
H229     H      0.278960000000     0.242510000000     0.923360000000     0.0303508  
H230     H      0.287990000000     0.284250000000     0.914000000000     0.0335774  
H231     H      0.210630000000     0.318040000000     0.858070000000     0.0286827  
H232     H      0.241080000000     0.324110000000     0.913400000000     0.0366529  
H233     H      0.254310000000     0.232810000000     0.617220000000     0.0367731  
H234     H      0.202180000000     0.264920000000     0.617790000000     0.0350429  
H235     H      0.197930000000     0.296270000000     0.672780000000     0.0334323  
H236     H      0.290810000000     0.254540000000     0.608210000000     0.0302094  
H237     H      0.283750000000     0.242340000000     0.672340000000     0.0284401  
H238     H      0.286770000000     0.285100000000     0.663800000000     0.0332943  
H239     H      0.204560000000     0.307660000000     0.608800000000     0.0301403  
H240     H      0.234520000000     0.317750000000     0.663520000000     0.0387252  
H241     H      0.013130000000     0.132890000000     0.696320000000     0.039234   
H242     H      0.057880000000     0.133650000000     0.743430000000     0.0395736  
H243     H      0.037920000000     0.156100000000     0.798930000000     0.039149   
H244     H      0.482580000000     0.102150000000     0.699010000000     0.0383777  
H245     H      0.464490000000     0.157570000000     0.719840000000     0.0389168  
H246     H      0.461090000000     0.126350000000     0.752160000000     0.0404726  
H247     H      0.057570000000     0.102350000000     0.776330000000     0.041697   
H248     H      0.507850000000     0.124670000000     0.801830000000     0.040939   
H249     H      0.447680000000     0.384230000000     0.787110000000     0.038998   
H250     H      0.497700000000     0.384430000000     0.829590000000     0.0373256  
H251     H      0.036030000000     0.346400000000     0.806440000000     0.039703   
H252     H      0.449390000000     0.410670000000     0.749610000000     0.0409571  
H253     H      0.457840000000     0.352430000000     0.733740000000     0.0372228  
H254     H      0.992260000000     0.377290000000     0.723420000000     0.0401226  
H255     H      0.032230000000     0.407550000000     0.816730000000     0.0393682  
H256     H      0.043290000000     0.371200000000     0.768930000000     0.038612   
H257     H      0.370030000000     0.300630000000     0.793530000000     0.0371364  
H258     H      0.366970000000     0.295400000000     0.723450000000     0.0371179  
H259     H      0.398700000000     0.248640000000     0.706410000000     0.0403145  
H260     H      0.343850000000     0.274910000000     0.818400000000     0.0413124  
H261     H      0.399990000000     0.255300000000     0.818790000000     0.03883    
H262     H      0.372940000000     0.226570000000     0.799220000000     0.0373258  
H263     H      0.340460000000     0.264960000000     0.706390000000     0.0377998  
H264     H      0.373070000000     0.221740000000     0.730370000000     0.0360886  
H265     H      0.123050000000     0.235830000000     0.730550000000     0.0387538  
H266     H      0.122990000000     0.230710000000     0.800060000000     0.0364668  
H267     H      0.149240000000     0.278250000000     0.825060000000     0.0378974  
H268     H      0.093310000000     0.261800000000     0.711150000000     0.0401391  
H269     H      0.147100000000     0.287820000000     0.712840000000     0.0402036  
H270     H      0.117990000000     0.309580000000     0.738130000000     0.0361418  
H271     H      0.093940000000     0.254200000000     0.823630000000     0.0404532  
H272     H      0.119800000000     0.304750000000     0.805870000000     0.0367061  
H273     H      0.428910000000     0.140430000000     0.489950000000     0.038687   
H274     H      0.483480000000     0.142550000000     0.948580000000     0.0383862  
H275     H      0.027400000000     0.171210000000     0.976090000000     0.0372142  
H276     H      0.432090000000     0.112520000000     0.526130000000     0.0406032  
H277     H      0.445150000000     0.170180000000     0.542570000000     0.0364255  
H278     H      0.978140000000     0.142640000000     0.549830000000     0.0402095  
H279     H      0.013340000000     0.113220000000     0.960040000000     0.0398131  
H280     H      0.028670000000     0.143330000000     0.011890000000     0.0381576  
H281     H      0.989380000000     0.395470000000     0.972350000000     0.0406109  
H282     H      0.029220000000     0.379020000000     0.574910000000     0.0373316  
H283     H      0.484310000000     0.417690000000     0.574720000000     0.0346958  
H284     H      0.960070000000     0.363320000000     0.975670000000     0.0390495  
H285     H      0.937670000000     0.415400000000     0.996510000000     0.0424746  
H286     H      0.440160000000     0.386190000000     0.031490000000     0.0408414  
H287     H      0.491050000000     0.358570000000     0.575660000000     0.0409559  
H288     H      0.466870000000     0.398740000000     0.536600000000     0.0440792  
H289     H      0.359200000000     0.234580000000     0.984220000000     0.0365356  
H290     H      0.364010000000     0.248580000000     0.550190000000     0.0373399  
H291     H      0.400510000000     0.292140000000     0.566810000000     0.0424627  
H292     H      0.338460000000     0.263850000000     0.957890000000     0.0385582  
H293     H      0.398320000000     0.269060000000     0.954990000000     0.0388822  
H294     H      0.377860000000     0.305180000000     0.968820000000     0.0358764  
H295     H      0.342070000000     0.282030000000     0.568290000000     0.0406184  
H296     H      0.378810000000     0.321010000000     0.541220000000     0.0373604  
H297     H      0.119530000000     0.238150000000     0.980730000000     0.0363831  
H298     H      0.118290000000     0.231670000000     0.048950000000     0.0370889  
H299     H      0.148460000000     0.266680000000     0.575780000000     0.0391916  
H300     H      0.091780000000     0.265660000000     0.960950000000     0.0401469  
H301     H      0.146130000000     0.289280000000     0.963330000000     0.0406675  
H302     H      0.118530000000     0.298680000000     0.486820000000     0.0391548  
H303     H      0.090220000000     0.249350000000     0.575340000000     0.0387952  
H304     H      0.121710000000     0.296420000000     0.557990000000     0.0356573  
H305     H      0.452830000000     0.254170000000     0.911470000000     0.0334394  
H306     H      0.502820000000     0.218560000000     0.915760000000     0.0369568  
H307     H      0.034530000000     0.223030000000     0.861240000000     0.0319617  
H308     H      0.458100000000     0.297100000000     0.917300000000     0.0295521  
H309     H      0.452150000000     0.281730000000     0.853890000000     0.0289979  
H310     H      0.989740000000     0.301520000000     0.862740000000     0.0373088  
H311     H      0.040430000000     0.238340000000     0.924640000000     0.0304912  
H312     H      0.039740000000     0.265950000000     0.867110000000     0.0354034  
H313     H      0.038860000000     0.263130000000     0.618670000000     0.0338427  
H314     H      0.000990000000     0.214290000000     0.616120000000     0.0325059  
H315     H      0.468630000000     0.212770000000     0.670530000000     0.0331736  
H316     H      0.021990000000     0.302290000000     0.609570000000     0.0325021  
H317     H      0.030410000000     0.293390000000     0.673920000000     0.0276597  
H318     H      0.488930000000     0.300890000000     0.663380000000     0.0350989  
H319     H      0.459470000000     0.222150000000     0.606070000000     0.0292132  
H320     H      0.451290000000     0.251750000000     0.661470000000     0.0357318  
H321     H      0.248170000000     0.568270000000     0.384230000000     0.0421471  
H322     H      0.187740000000     0.563450000000     0.383630000000     0.0414381  
H323     H      0.171880000000     0.005220000000     0.378240000000     0.0425422  
H324     H      0.270120000000     0.560900000000     0.423710000000     0.0426873  
H325     H      0.275350000000     0.513180000000     0.383610000000     0.0422616  
H326     H      0.252900000000     0.001940000000     0.421660000000     0.0416685  
H327     H      0.166760000000     0.050730000000     0.422250000000     0.0420101  
H328     H      0.192520000000     0.996050000000     0.418230000000     0.0421349  
H329     H      0.261220000000     0.562840000000     0.132650000000     0.0420991  
H330     H      0.200770000000     0.569190000000     0.132240000000     0.0416046  
H331     H      0.171900000000     0.015170000000     0.132830000000     0.0428629  
H332     H      0.281300000000     0.550060000000     0.171900000000     0.0423805  
H333     H      0.275140000000     0.504000000000     0.128730000000     0.0426886  
H334     H      0.254010000000     0.996370000000     0.168770000000     0.0403836  
H335     H      0.178410000000     0.063510000000     0.171810000000     0.0419796  
H336     H      0.193670000000     0.003920000000     0.171310000000     0.0441787  
H337     H      0.449130000000     0.549930000000     0.400570000000     0.0400103  
H338     H      0.009830000000     0.548750000000     0.400500000000     0.0427644  
H339     H      0.032620000000     0.991440000000     0.404400000000     0.0415291  
H340     H      0.427320000000     0.535330000000     0.363190000000     0.0426613  
H341     H      0.429070000000     0.494580000000     0.412980000000     0.0429314  
H342     H      0.447370000000     0.979560000000     0.373600000000     0.0409004  
H343     H      0.031110000000     0.037240000000     0.361770000000     0.0416937  
H344     H      0.008350000000     0.980080000000     0.367800000000     0.04262    
H345     H      0.452960000000     0.973010000000     0.114680000000     0.0410788  
H346     H      0.012450000000     0.985170000000     0.114690000000     0.0430585  
H347     H      0.021990000000     0.545420000000     0.118560000000     0.0427412  
H348     H      0.430920000000     0.974220000000     0.154990000000     0.040967   
H349     H      0.420250000000     0.524160000000     0.118810000000     0.042731   
H350     H      0.440100000000     0.534670000000     0.158660000000     0.0455469  
H351     H      0.032370000000     0.995540000000     0.154820000000     0.0425282  
H352     H      0.999920000000     0.546750000000     0.158720000000     0.0405684  
H353     H      0.273860000000     0.654410000000     0.284490000000     0.0408494  
H354     H      0.224100000000     0.652260000000     0.236810000000     0.041545   
H355     H      0.175220000000     0.631050000000     0.265330000000     0.0407842  
H356     H      0.271000000000     0.685550000000     0.316940000000     0.0383071  
H357     H      0.254190000000     0.629340000000     0.337620000000     0.0375319  
H358     H      0.224050000000     0.660250000000     0.342680000000     0.0377105  
H359     H      0.194670000000     0.684140000000     0.241280000000     0.0391883  
H360     H      0.177400000000     0.662380000000     0.298190000000     0.0385188  
H361     H      0.251720000000     0.896780000000     0.204400000000     0.0387349  
H362     H      0.293910000000     0.896650000000     0.256440000000     0.0365293  
H363     H      0.278610000000     0.939440000000     0.294880000000     0.0420289  
H364     H      0.215290000000     0.873780000000     0.210900000000     0.0379817  
H365     H      0.206640000000     0.933810000000     0.215550000000     0.0363053  
H366     H      0.196450000000     0.912390000000     0.255040000000     0.0424186  
H367     H      0.281950000000     0.877660000000     0.296450000000     0.0406462  
H368     H      0.242880000000     0.918800000000     0.308220000000     0.0401883  
H369     H      0.231220000000     0.658620000000     0.089720000000     0.0386219  
H370     H      0.181060000000     0.662990000000     0.048940000000     0.0395908  
H371     H      0.200010000000     0.682070000000     0.489510000000     0.038276   
H372     H      0.259930000000     0.627090000000     0.081110000000     0.0391018  
H373     H      0.276130000000     0.683330000000     0.060220000000     0.0372959  
H374     H      0.280150000000     0.649680000000     0.527140000000     0.0391938  
H375     H      0.175770000000     0.632260000000     0.015940000000     0.0417587  
H376     H      0.227720000000     0.648720000000     0.484190000000     0.0413574  
H377     H      0.280480000000     0.898520000000     0.507670000000     0.0378286  
H378     H      0.232930000000     0.901920000000     0.056280000000     0.04186    
H379     H      0.183490000000     0.928150000000     0.033450000000     0.041504   
H380     H      0.271220000000     0.876640000000     0.468680000000     0.038892   
H381     H      0.263330000000     0.939120000000     0.467410000000     0.0395292  
H382     H      0.230970000000     0.914510000000     0.451810000000     0.0369666  
H383     H      0.201530000000     0.872890000000     0.047360000000     0.0377363  
H384     H      0.185720000000     0.903640000000     0.994450000000     0.0407342  
H385     H      0.252800000000     0.737980000000     0.366930000000     0.0376893  
H386     H      0.200580000000     0.770560000000     0.367940000000     0.0322729  
H387     H      0.197180000000     0.800600000000     0.423910000000     0.0313304  
H388     H      0.289270000000     0.759570000000     0.357520000000     0.033403   
H389     H      0.283220000000     0.747190000000     0.421360000000     0.0304938  
H390     H      0.285850000000     0.790050000000     0.413240000000     0.0334872  
H391     H      0.203430000000     0.813390000000     0.359840000000     0.0289213  
H392     H      0.233560000000     0.822420000000     0.414740000000     0.0370703  
H393     H      0.250560000000     0.735080000000     0.117350000000     0.0367597  
H394     H      0.199970000000     0.769610000000     0.117170000000     0.0346956  
H395     H      0.196480000000     0.801010000000     0.172210000000     0.0331276  
H396     H      0.288140000000     0.755070000000     0.108850000000     0.0300733  
H397     H      0.279820000000     0.743270000000     0.172880000000     0.028333   
H398     H      0.284790000000     0.785850000000     0.164330000000     0.0337203  
H399     H      0.204450000000     0.812200000000     0.108310000000     0.0300353  
H400     H      0.234120000000     0.820800000000     0.163480000000     0.038569   
H401     H      0.984030000000     0.631980000000     0.194280000000     0.0389233  
H402     H      0.037050000000     0.629450000000     0.231800000000     0.0399795  
H403     H      0.031100000000     0.656510000000     0.288990000000     0.0360817  
H404     H      0.450680000000     0.607520000000     0.207970000000     0.0397038  
H405     H      0.447460000000     0.667560000000     0.224630000000     0.038782   
H406     H      0.443490000000     0.639570000000     0.260100000000     0.0388691  
H407     H      0.038720000000     0.600090000000     0.266600000000     0.0418224  
H408     H      0.497640000000     0.630440000000     0.299800000000     0.0411187  
H409     H      0.429360000000     0.880040000000     0.284090000000     0.0388377  
H410     H      0.474720000000     0.884230000000     0.331050000000     0.0368508  
H411     H      0.021290000000     0.855130000000     0.309940000000     0.0390402  
H412     H      0.430070000000     0.908810000000     0.248540000000     0.0403154  
H413     H      0.448420000000     0.853230000000     0.230500000000     0.0392101  
H414     H      0.979180000000     0.883580000000     0.224790000000     0.0407549  
H415     H      0.006070000000     0.913530000000     0.324260000000     0.037538   
H416     H      0.026780000000     0.883350000000     0.274930000000     0.0401589  
H417     H      0.366880000000     0.805290000000     0.292950000000     0.0370186  
H418     H      0.364080000000     0.799370000000     0.223320000000     0.0371719  
H419     H      0.395270000000     0.751980000000     0.206770000000     0.0401888  
H420     H      0.340390000000     0.780250000000     0.318230000000     0.0408784  
H421     H      0.396270000000     0.759990000000     0.319120000000     0.0393949  
H422     H      0.369040000000     0.731290000000     0.299760000000     0.0374174  
H423     H      0.337340000000     0.769120000000     0.206240000000     0.0377168  
H424     H      0.369280000000     0.725730000000     0.231120000000     0.0358238  
H425     H      0.118600000000     0.739470000000     0.229570000000     0.038498   
H426     H      0.118660000000     0.733940000000     0.299030000000     0.0362377  
H427     H      0.145880000000     0.780700000000     0.324500000000     0.0377578  
H428     H      0.089530000000     0.766400000000     0.210500000000     0.0390935  
H429     H      0.144130000000     0.790790000000     0.212320000000     0.0402951  
H430     H      0.115570000000     0.813290000000     0.237610000000     0.0359298  
H431     H      0.090170000000     0.757860000000     0.322890000000     0.0399384  
H432     H      0.117060000000     0.807980000000     0.305470000000     0.0369117  
H433     H      0.432880000000     0.647900000000     0.990050000000     0.0403214  
H434     H      0.473860000000     0.640260000000     0.443560000000     0.0375194  
H435     H      0.018620000000     0.672680000000     0.463790000000     0.0387627  
H436     H      0.429520000000     0.619290000000     0.025490000000     0.0414779  
H437     H      0.446640000000     0.674540000000     0.045700000000     0.0355741  
H438     H      0.976320000000     0.643750000000     0.054940000000     0.0400163  
H439     H      0.007690000000     0.613720000000     0.449640000000     0.0382966  
H440     H      0.026190000000     0.645340000000     0.499140000000     0.0405615  
H441     H      0.062000000000     0.877300000000     0.515920000000     0.0350036  
H442     H      0.036950000000     0.894850000000     0.021050000000     0.0377709  
H443     H      0.515800000000     0.925380000000     0.069380000000     0.0392417  
H444     H      0.041720000000     0.862510000000     0.477890000000     0.0406561  
H445     H      0.045560000000     0.924870000000     0.486560000000     0.0413004  
H446     H      0.507390000000     0.908230000000     0.475090000000     0.0395905  
H447     H      0.532240000000     0.866380000000     0.055990000000     0.03818    
H448     H      0.486280000000     0.894880000000     0.078500000000     0.0389064  
H449     H      0.362070000000     0.742780000000     0.478660000000     0.0370744  
H450     H      0.362520000000     0.747730000000     0.053390000000     0.0359395  
H451     H      0.399950000000     0.792130000000     0.064890000000     0.0417642  
H452     H      0.340600000000     0.774220000000     0.456210000000     0.03842    
H453     H      0.400870000000     0.780710000000     0.455010000000     0.037451   
H454     H      0.379670000000     0.814750000000     0.473160000000     0.0365155  
H455     H      0.341390000000     0.783030000000     0.068410000000     0.040643   
H456     H      0.377890000000     0.818610000000     0.036470000000     0.0378012  
H457     H      0.120410000000     0.724400000000     0.486080000000     0.0360773  
H458     H      0.117280000000     0.722250000000     0.553280000000     0.036592   
H459     H      0.147670000000     0.776520000000     0.075370000000     0.0387687  
H460     H      0.092570000000     0.749470000000     0.462670000000     0.0402034  
H461     H      0.146590000000     0.773620000000     0.463480000000     0.040306   
H462     H      0.118060000000     0.812240000000     0.989030000000     0.0383468  
H463     H      0.090700000000     0.756440000000     0.073280000000     0.0394454  
H464     H      0.119950000000     0.805460000000     0.057580000000     0.0355559  
H465     H      0.452850000000     0.760270000000     0.413360000000     0.0327689  
H466     H      0.500710000000     0.721460000000     0.414730000000     0.0376877  
H467     H      0.031030000000     0.725120000000     0.359210000000     0.0313925  
H468     H      0.461090000000     0.802660000000     0.419490000000     0.0291192  
H469     H      0.451950000000     0.788470000000     0.356140000000     0.0289023  
H470     H      0.990890000000     0.805890000000     0.363690000000     0.0360588  
H471     H      0.039710000000     0.738650000000     0.422550000000     0.0321334  
H472     H      0.038720000000     0.767570000000     0.365750000000     0.0354366  
H473     H      0.037580000000     0.761380000000     0.118510000000     0.0337886  
H474     H      0.990480000000     0.721260000000     0.115360000000     0.0357116  
H475     H      0.457340000000     0.726550000000     0.168800000000     0.0329618  
H476     H      0.028900000000     0.803160000000     0.109170000000     0.0304456  
H477     H      0.034370000000     0.792390000000     0.173930000000     0.026925   
H478     H      0.495550000000     0.808420000000     0.162680000000     0.0350155  
H479     H      0.451720000000     0.737520000000     0.104190000000     0.0298579  
H480     H      0.448680000000     0.768380000000     0.159630000000     0.0344933  
H481     H      0.249230000000     0.568020000000     0.882980000000     0.0419367  
H482     H      0.189100000000     0.561090000000     0.881080000000     0.0423136  
H483     H      0.175120000000     0.002060000000     0.878590000000     0.0427111  
H484     H      0.270520000000     0.563030000000     0.923310000000     0.0424576  
H485     H      0.278130000000     0.513880000000     0.885570000000     0.0423001  
H486     H      0.255380000000     0.003430000000     0.923650000000     0.0421569  
H487     H      0.167610000000     0.049460000000     0.919760000000     0.0425652  
H488     H      0.195320000000     0.995500000000     0.919410000000     0.0423894  
H489     H      0.264610000000     0.559910000000     0.633370000000     0.042132   
H490     H      0.204320000000     0.567760000000     0.633560000000     0.0416527  
H491     H      0.173970000000     0.014510000000     0.634600000000     0.0434099  
H492     H      0.284650000000     0.546390000000     0.672370000000     0.0423262  
H493     H      0.276850000000     0.500780000000     0.628860000000     0.0424624  
H494     H      0.256080000000     0.993460000000     0.669180000000     0.0401153  
H495     H      0.182200000000     0.062690000000     0.673380000000     0.0422507  
H496     H      0.195940000000     0.002630000000     0.672690000000     0.0448306  
H497     H      0.465220000000     0.555360000000     0.895390000000     0.0396767  
H498     H      0.023070000000     0.539190000000     0.906190000000     0.0427943  
H499     H      0.028230000000     0.978990000000     0.916630000000     0.0420975  
H500     H      0.446660000000     0.546350000000     0.854180000000     0.0421881  
H501     H      0.429250000000     0.507470000000     0.901410000000     0.0429868  
H502     H      0.450530000000     0.987090000000     0.866910000000     0.0427405  
H503     H      0.045830000000     0.019870000000     0.872250000000     0.042733   
H504     H      0.009070000000     0.971500000000     0.875450000000     0.0402876  
H505     H      0.484350000000     0.974540000000     0.614310000000     0.0411235  
H506     H      0.044530000000     0.982300000000     0.615890000000     0.0412708  
H507     H      0.054110000000     0.541100000000     0.611340000000     0.0425062  
H508     H      0.461890000000     0.975150000000     0.654190000000     0.041214   
H509     H      0.451630000000     0.526840000000     0.622980000000     0.0427355  
H510     H      0.475600000000     0.535980000000     0.660220000000     0.0453342  
H511     H      0.063520000000     0.995450000000     0.655680000000     0.0425935  
H512     H      0.035530000000     0.547860000000     0.653030000000     0.0400109  
H513     H      0.277070000000     0.652400000000     0.784940000000     0.0407806  
H514     H      0.227000000000     0.649950000000     0.737490000000     0.0416696  
H515     H      0.178510000000     0.628160000000     0.766240000000     0.041094   
H516     H      0.274010000000     0.683390000000     0.817540000000     0.0384009  
H517     H      0.257880000000     0.626910000000     0.838020000000     0.0373248  
H518     H      0.227490000000     0.657500000000     0.843440000000     0.0376021  
H519     H      0.197340000000     0.681550000000     0.742340000000     0.0391041  
H520     H      0.180570000000     0.659390000000     0.799220000000     0.0387006  
H521     H      0.255300000000     0.894690000000     0.704130000000     0.0386066  
H522     H      0.297810000000     0.894390000000     0.755600000000     0.0362106  
H523     H      0.282610000000     0.936510000000     0.795010000000     0.0419461  
H524     H      0.219020000000     0.871450000000     0.710680000000     0.0381342  
H525     H      0.210200000000     0.931440000000     0.716080000000     0.0367586  
H526     H      0.200290000000     0.909560000000     0.755360000000     0.0424916  
H527     H      0.286500000000     0.874810000000     0.795520000000     0.0402717  
H528     H      0.247110000000     0.915460000000     0.808300000000     0.040133   
H529     H      0.235360000000     0.657180000000     0.589680000000     0.0387652  
H530     H      0.185520000000     0.662510000000     0.548510000000     0.0401993  
H531     H      0.194940000000     0.684940000000     0.991290000000     0.0384744  
H532     H      0.263350000000     0.624950000000     0.581400000000     0.0389143  
H533     H      0.280650000000     0.681010000000     0.559570000000     0.0368955  
H534     H      0.276220000000     0.653030000000     0.026770000000     0.0387692  
H535     H      0.179150000000     0.631130000000     0.516440000000     0.0418935  
H536     H      0.223360000000     0.652730000000     0.983620000000     0.0414639  
H537     H      0.283270000000     0.901160000000     0.006730000000     0.0371088  
H538     H      0.230610000000     0.897890000000     0.557730000000     0.0415342  
H539     H      0.182610000000     0.926920000000     0.536020000000     0.0417624  
H540     H      0.273790000000     0.878810000000     0.968140000000     0.0384631  
H541     H      0.265670000000     0.941720000000     0.967020000000     0.0395778  
H542     H      0.234050000000     0.916650000000     0.950560000000     0.0368068  
H543     H      0.198400000000     0.870330000000     0.547000000000     0.0371933  
H544     H      0.182460000000     0.903500000000     0.496380000000     0.0398292  
H545     H      0.248430000000     0.736410000000     0.868400000000     0.0370417  
H546     H      0.201520000000     0.776360000000     0.867580000000     0.0332245  
H547     H      0.201750000000     0.808250000000     0.922480000000     0.0310291  
H548     H      0.287780000000     0.752200000000     0.859180000000     0.0327802  
H549     H      0.278950000000     0.742510000000     0.923360000000     0.0304025  
H550     H      0.287980000000     0.784250000000     0.914000000000     0.033634   
H551     H      0.210630000000     0.818040000000     0.858070000000     0.0286864  
H552     H      0.241080000000     0.824110000000     0.913400000000     0.0366551  
H553     H      0.254310000000     0.732810000000     0.617220000000     0.0367754  
H554     H      0.202180000000     0.764920000000     0.617790000000     0.035083   
H555     H      0.197930000000     0.796270000000     0.672780000000     0.0334233  
H556     H      0.290810000000     0.754540000000     0.608210000000     0.0302113  
H557     H      0.283750000000     0.742340000000     0.672340000000     0.0284397  
H558     H      0.286770000000     0.785100000000     0.663800000000     0.0332953  
H559     H      0.204560000000     0.807660000000     0.608800000000     0.0301842  
H560     H      0.234520000000     0.817750000000     0.663520000000     0.038719   
H561     H      0.013130000000     0.632890000000     0.696320000000     0.0392429  
H562     H      0.057880000000     0.633650000000     0.743430000000     0.0395798  
H563     H      0.037920000000     0.656110000000     0.798930000000     0.0391542  
H564     H      0.482580000000     0.602150000000     0.699010000000     0.0383683  
H565     H      0.464490000000     0.657580000000     0.719840000000     0.0388861  
H566     H      0.461090000000     0.626350000000     0.752160000000     0.0404391  
H567     H      0.057570000000     0.602350000000     0.776330000000     0.0417026  
H568     H      0.507860000000     0.624670000000     0.801830000000     0.0409366  
H569     H      0.447680000000     0.884230000000     0.787110000000     0.0390078  
H570     H      0.497700000000     0.884430000000     0.829590000000     0.0373361  
H571     H      0.036030000000     0.846400000000     0.806440000000     0.0397093  
H572     H      0.449390000000     0.910670000000     0.749610000000     0.0409729  
H573     H      0.457840000000     0.852430000000     0.733740000000     0.0372157  
H574     H      0.992260000000     0.877290000000     0.723420000000     0.040132   
H575     H      0.032230000000     0.907550000000     0.816730000000     0.0393925  
H576     H      0.043290000000     0.871200000000     0.768930000000     0.0386169  
H577     H      0.370030000000     0.800630000000     0.793530000000     0.037139   
H578     H      0.366960000000     0.795400000000     0.723450000000     0.0371253  
H579     H      0.398700000000     0.748640000000     0.706410000000     0.0403125  
H580     H      0.343850000000     0.774910000000     0.818400000000     0.0413147  
H581     H      0.399990000000     0.755300000000     0.818790000000     0.0388373  
H582     H      0.372940000000     0.726570000000     0.799220000000     0.0373267  
H583     H      0.340460000000     0.764960000000     0.706390000000     0.0378029  
H584     H      0.373070000000     0.721740000000     0.730370000000     0.0360871  
H585     H      0.123050000000     0.735830000000     0.730550000000     0.0387532  
H586     H      0.122990000000     0.730720000000     0.800060000000     0.0364809  
H587     H      0.149240000000     0.778250000000     0.825060000000     0.0378935  
H588     H      0.093310000000     0.761800000000     0.711150000000     0.0401393  
H589     H      0.147100000000     0.787820000000     0.712840000000     0.0402046  
H590     H      0.117990000000     0.809580000000     0.738130000000     0.036145   
H591     H      0.093940000000     0.754200000000     0.823630000000     0.0404605  
H592     H      0.119800000000     0.804750000000     0.805870000000     0.0367075  
H593     H      0.428910000000     0.640430000000     0.489950000000     0.0386891  
H594     H      0.483480000000     0.642550000000     0.948580000000     0.0383893  
H595     H      0.027400000000     0.671210000000     0.976090000000     0.037209   
H596     H      0.432090000000     0.612520000000     0.526130000000     0.0406089  
H597     H      0.445150000000     0.670170000000     0.542570000000     0.0364271  
H598     H      0.978140000000     0.642640000000     0.549830000000     0.0402068  
H599     H      0.013340000000     0.613230000000     0.960040000000     0.0398174  
H600     H      0.028670000000     0.643330000000     0.011890000000     0.0381588  
H601     H      0.989370000000     0.895470000000     0.972350000000     0.0406343  
H602     H      0.029220000000     0.879020000000     0.574910000000     0.0373455  
H603     H      0.484310000000     0.917690000000     0.574720000000     0.034739   
H604     H      0.960080000000     0.863320000000     0.975670000000     0.0390758  
H605     H      0.937670000000     0.915400000000     0.996510000000     0.0424848  
H606     H      0.440160000000     0.886190000000     0.031490000000     0.0408395  
H607     H      0.491050000000     0.858570000000     0.575660000000     0.0409489  
H608     H      0.466870000000     0.898740000000     0.536600000000     0.0441196  
H609     H      0.359200000000     0.734580000000     0.984220000000     0.0365381  
H610     H      0.364010000000     0.748580000000     0.550190000000     0.0373421  
H611     H      0.400510000000     0.792140000000     0.566810000000     0.0424784  
H612     H      0.338460000000     0.763860000000     0.957890000000     0.038561   
H613     H      0.398320000000     0.769060000000     0.954990000000     0.0388813  
H614     H      0.377850000000     0.805180000000     0.968820000000     0.0358744  
H615     H      0.342070000000     0.782030000000     0.568290000000     0.0406268  
H616     H      0.378810000000     0.821010000000     0.541220000000     0.0373672  
H617     H      0.119530000000     0.738150000000     0.980730000000     0.0363827  
H618     H      0.118290000000     0.731670000000     0.048950000000     0.0370852  
H619     H      0.148460000000     0.766680000000     0.575780000000     0.0391912  
H620     H      0.091780000000     0.765660000000     0.960950000000     0.0401462  
H621     H      0.146130000000     0.789280000000     0.963330000000     0.0406683  
H622     H      0.118530000000     0.798680000000     0.486820000000     0.0391549  
H623     H      0.090220000000     0.749350000000     0.575340000000     0.0387929  
H624     H      0.121710000000     0.796420000000     0.557990000000     0.035658   
H625     H      0.452830000000     0.754170000000     0.911470000000     0.0334377  
H626     H      0.502820000000     0.718560000000     0.915760000000     0.0369557  
H627     H      0.034530000000     0.723030000000     0.861240000000     0.031964   
H628     H      0.458100000000     0.797100000000     0.917300000000     0.0295496  
H629     H      0.452150000000     0.781730000000     0.853890000000     0.029005   
H630     H      0.989740000000     0.801520000000     0.862740000000     0.0373121  
H631     H      0.040430000000     0.738340000000     0.924640000000     0.0304959  
H632     H      0.039740000000     0.765950000000     0.867110000000     0.0354038  
H633     H      0.038860000000     0.763130000000     0.618670000000     0.0338394  
H634     H      0.000990000000     0.714290000000     0.616120000000     0.0325073  
H635     H      0.468630000000     0.712770000000     0.670530000000     0.0331502  
H636     H      0.021990000000     0.802290000000     0.609570000000     0.0325     
H637     H      0.030410000000     0.793390000000     0.673920000000     0.0276593  
H638     H      0.488940000000     0.800890000000     0.663380000000     0.0351069  
H639     H      0.459470000000     0.722150000000     0.606070000000     0.0292122  
H640     H      0.451290000000     0.751760000000     0.661470000000     0.0357144  
H641     H      0.748170000000     0.068270000000     0.384230000000     0.0421596  
H642     H      0.687740000000     0.063460000000     0.383630000000     0.0414291  
H643     H      0.671880000000     0.505220000000     0.378240000000     0.0425441  
H644     H      0.770120000000     0.060900000000     0.423710000000     0.0426847  
H645     H      0.775350000000     0.013180000000     0.383610000000     0.0422219  
H646     H      0.752900000000     0.501940000000     0.421660000000     0.0417363  
H647     H      0.666760000000     0.550730000000     0.422250000000     0.0420246  
H648     H      0.692520000000     0.496050000000     0.418230000000     0.0419393  
H649     H      0.761220000000     0.062840000000     0.132650000000     0.0420896  
H650     H      0.700770000000     0.069190000000     0.132240000000     0.0416176  
H651     H      0.671900000000     0.515170000000     0.132830000000     0.042898   
H652     H      0.781300000000     0.050060000000     0.171900000000     0.0423416  
H653     H      0.775140000000     0.004000000000     0.128730000000     0.0427036  
H654     H      0.754010000000     0.496370000000     0.168770000000     0.0401801  
H655     H      0.678400000000     0.563510000000     0.171810000000     0.0419679  
H656     H      0.693670000000     0.503920000000     0.171310000000     0.0442326  
H657     H      0.949130000000     0.049930000000     0.400570000000     0.0400136  
H658     H      0.509830000000     0.048750000000     0.400500000000     0.0427827  
H659     H      0.532620000000     0.491440000000     0.404400000000     0.041508   
H660     H      0.927320000000     0.035330000000     0.363190000000     0.0426727  
H661     H      0.929070000000     0.994580000000     0.412980000000     0.0429729  
H662     H      0.947370000000     0.479560000000     0.373600000000     0.0408764  
H663     H      0.531110000000     0.537240000000     0.361770000000     0.0416732  
H664     H      0.508350000000     0.480080000000     0.367800000000     0.0425869  
H665     H      0.952960000000     0.473010000000     0.114680000000     0.0410396  
H666     H      0.512450000000     0.485170000000     0.114690000000     0.0430464  
H667     H      0.521990000000     0.045430000000     0.118560000000     0.0427755  
H668     H      0.930920000000     0.474220000000     0.154990000000     0.0409591  
H669     H      0.920250000000     0.024160000000     0.118810000000     0.0427378  
H670     H      0.940100000000     0.034670000000     0.158660000000     0.045546   
H671     H      0.532370000000     0.495540000000     0.154820000000     0.0425296  
H672     H      0.499920000000     0.046740000000     0.158720000000     0.0407724  
H673     H      0.773860000000     0.154410000000     0.284490000000     0.0408511  
H674     H      0.724100000000     0.152260000000     0.236810000000     0.0415452  
H675     H      0.675220000000     0.131050000000     0.265330000000     0.0407785  
H676     H      0.771000000000     0.185550000000     0.316940000000     0.0383092  
H677     H      0.754190000000     0.129340000000     0.337620000000     0.0375346  
H678     H      0.724050000000     0.160250000000     0.342680000000     0.037713   
H679     H      0.694670000000     0.184140000000     0.241280000000     0.0391879  
H680     H      0.677400000000     0.162380000000     0.298190000000     0.0385181  
H681     H      0.751720000000     0.396780000000     0.204400000000     0.0387572  
H682     H      0.793910000000     0.396650000000     0.256440000000     0.0365214  
H683     H      0.778610000000     0.439440000000     0.294880000000     0.042      
H684     H      0.715290000000     0.373780000000     0.210900000000     0.0380087  
H685     H      0.706640000000     0.433810000000     0.215550000000     0.0362633  
H686     H      0.696450000000     0.412390000000     0.255040000000     0.0423921  
H687     H      0.781950000000     0.377660000000     0.296450000000     0.0406417  
H688     H      0.742880000000     0.418800000000     0.308220000000     0.0401686  
H689     H      0.731220000000     0.158620000000     0.089720000000     0.03862    
H690     H      0.681060000000     0.162990000000     0.048940000000     0.0395874  
H691     H      0.700010000000     0.182070000000     0.489510000000     0.0382818  
H692     H      0.759930000000     0.127090000000     0.081110000000     0.0391019  
H693     H      0.776130000000     0.183330000000     0.060220000000     0.0373056  
H694     H      0.780150000000     0.149680000000     0.527140000000     0.0391878  
H695     H      0.675770000000     0.132260000000     0.015940000000     0.0417553  
H696     H      0.727720000000     0.148720000000     0.484190000000     0.0413643  
H697     H      0.780480000000     0.398520000000     0.507670000000     0.0378134  
H698     H      0.732930000000     0.401920000000     0.056280000000     0.0418439  
H699     H      0.683490000000     0.428150000000     0.033450000000     0.0414803  
H700     H      0.771220000000     0.376640000000     0.468680000000     0.0388856  
H701     H      0.763330000000     0.439120000000     0.467410000000     0.0394968  
H702     H      0.730970000000     0.414510000000     0.451810000000     0.0369502  
H703     H      0.701530000000     0.372890000000     0.047360000000     0.0377312  
H704     H      0.685720000000     0.403640000000     0.994450000000     0.0407225  
H705     H      0.752800000000     0.237980000000     0.366930000000     0.0376914  
H706     H      0.700580000000     0.270560000000     0.367940000000     0.0322741  
H707     H      0.697180000000     0.300600000000     0.423910000000     0.0313294  
H708     H      0.789270000000     0.259570000000     0.357520000000     0.0334016  
H709     H      0.783220000000     0.247190000000     0.421360000000     0.0304948  
H710     H      0.785850000000     0.290050000000     0.413240000000     0.033486   
H711     H      0.703430000000     0.313390000000     0.359840000000     0.0289183  
H712     H      0.733560000000     0.322420000000     0.414740000000     0.0370677  
H713     H      0.750560000000     0.235080000000     0.117350000000     0.0367702  
H714     H      0.699970000000     0.269600000000     0.117170000000     0.0346838  
H715     H      0.696480000000     0.301010000000     0.172210000000     0.0331275  
H716     H      0.788140000000     0.255070000000     0.108850000000     0.0300853  
H717     H      0.779820000000     0.243270000000     0.172880000000     0.0282956  
H718     H      0.784790000000     0.285850000000     0.164330000000     0.0336801  
H719     H      0.704450000000     0.312200000000     0.108310000000     0.0300265  
H720     H      0.734120000000     0.320800000000     0.163480000000     0.0385667  
H721     H      0.484030000000     0.131980000000     0.194280000000     0.0389539  
H722     H      0.537060000000     0.129450000000     0.231800000000     0.0399217  
H723     H      0.531100000000     0.156520000000     0.288990000000     0.036113   
H724     H      0.950680000000     0.107520000000     0.207970000000     0.0397092  
H725     H      0.947460000000     0.167560000000     0.224630000000     0.0387831  
H726     H      0.943480000000     0.139570000000     0.260100000000     0.0388499  
H727     H      0.538720000000     0.100090000000     0.266600000000     0.041793   
H728     H      0.997640000000     0.130440000000     0.299800000000     0.0409418  
H729     H      0.929360000000     0.380040000000     0.284090000000     0.0388315  
H730     H      0.974720000000     0.384220000000     0.331050000000     0.0369064  
H731     H      0.521290000000     0.355130000000     0.309940000000     0.0390627  
H732     H      0.930070000000     0.408810000000     0.248540000000     0.040302   
H733     H      0.948420000000     0.353230000000     0.230500000000     0.0392064  
H734     H      0.479180000000     0.383580000000     0.224790000000     0.0407938  
H735     H      0.506070000000     0.413530000000     0.324260000000     0.0373188  
H736     H      0.526780000000     0.383350000000     0.274930000000     0.0401875  
H737     H      0.866880000000     0.305290000000     0.292950000000     0.0370141  
H738     H      0.864080000000     0.299370000000     0.223320000000     0.037168   
H739     H      0.895270000000     0.251980000000     0.206770000000     0.0401929  
H740     H      0.840390000000     0.280250000000     0.318230000000     0.0408708  
H741     H      0.896270000000     0.259990000000     0.319120000000     0.0393979  
H742     H      0.869040000000     0.231290000000     0.299760000000     0.0374215  
H743     H      0.837340000000     0.269120000000     0.206240000000     0.0377111  
H744     H      0.869280000000     0.225730000000     0.231120000000     0.0358292  
H745     H      0.618600000000     0.239470000000     0.229570000000     0.038493   
H746     H      0.618660000000     0.233940000000     0.299030000000     0.0362351  
H747     H      0.645880000000     0.280700000000     0.324500000000     0.0377564  
H748     H      0.589530000000     0.266410000000     0.210500000000     0.0390779  
H749     H      0.644130000000     0.290790000000     0.212320000000     0.040292   
H750     H      0.615570000000     0.313290000000     0.237610000000     0.0359166  
H751     H      0.590170000000     0.257860000000     0.322890000000     0.0399326  
H752     H      0.617060000000     0.307980000000     0.305470000000     0.0369011  
H753     H      0.932880000000     0.147900000000     0.990050000000     0.0403259  
H754     H      0.973860000000     0.140260000000     0.443560000000     0.0375708  
H755     H      0.518620000000     0.172680000000     0.463790000000     0.0387895  
H756     H      0.929520000000     0.119290000000     0.025490000000     0.0414819  
H757     H      0.946640000000     0.174540000000     0.045700000000     0.035572   
H758     H      0.476320000000     0.143750000000     0.054940000000     0.0400512  
H759     H      0.507690000000     0.113720000000     0.449640000000     0.0381221  
H760     H      0.526190000000     0.145340000000     0.499140000000     0.0405916  
H761     H      0.562000000000     0.377300000000     0.515920000000     0.0349999  
H762     H      0.536950000000     0.394850000000     0.021050000000     0.0377984  
H763     H      0.015800000000     0.425380000000     0.069380000000     0.0394198  
H764     H      0.541720000000     0.362510000000     0.477890000000     0.0406304  
H765     H      0.545560000000     0.424870000000     0.486560000000     0.0412717  
H766     H      0.007390000000     0.408230000000     0.475090000000     0.0396148  
H767     H      0.032240000000     0.366380000000     0.055990000000     0.0381355  
H768     H      0.986280000000     0.394880000000     0.078500000000     0.0389478  
H769     H      0.862070000000     0.242780000000     0.478660000000     0.0370726  
H770     H      0.862520000000     0.247730000000     0.053390000000     0.035943   
H771     H      0.899950000000     0.292130000000     0.064890000000     0.0417621  
H772     H      0.840600000000     0.274220000000     0.456210000000     0.0384185  
H773     H      0.900870000000     0.280710000000     0.455010000000     0.0374456  
H774     H      0.879670000000     0.314750000000     0.473160000000     0.0365103  
H775     H      0.841390000000     0.283030000000     0.068410000000     0.0406434  
H776     H      0.877890000000     0.318610000000     0.036470000000     0.037797   
H777     H      0.620410000000     0.224400000000     0.486080000000     0.0360754  
H778     H      0.617280000000     0.222250000000     0.553280000000     0.0365892  
H779     H      0.647670000000     0.276520000000     0.075370000000     0.0387521  
H780     H      0.592570000000     0.249470000000     0.462670000000     0.0401982  
H781     H      0.646590000000     0.273620000000     0.463480000000     0.0403055  
H782     H      0.618060000000     0.312240000000     0.989030000000     0.0383361  
H783     H      0.590700000000     0.256440000000     0.073280000000     0.0394409  
H784     H      0.619950000000     0.305470000000     0.057580000000     0.0355329  
H785     H      0.952850000000     0.260270000000     0.413360000000     0.0327814  
H786     H      0.000710000000     0.221460000000     0.414730000000     0.0377608  
H787     H      0.531030000000     0.225120000000     0.359210000000     0.0313478  
H788     H      0.961080000000     0.302660000000     0.419490000000     0.0291179  
H789     H      0.951950000000     0.288470000000     0.356140000000     0.028893   
H790     H      0.490890000000     0.305890000000     0.363690000000     0.0361132  
H791     H      0.539710000000     0.238650000000     0.422550000000     0.0321156  
H792     H      0.538720000000     0.267570000000     0.365750000000     0.0353959  
H793     H      0.537580000000     0.261380000000     0.118510000000     0.0337605  
H794     H      0.490480000000     0.221260000000     0.115360000000     0.035746   
H795     H      0.957340000000     0.226550000000     0.168800000000     0.0329687  
H796     H      0.528900000000     0.303160000000     0.109170000000     0.0304101  
H797     H      0.534370000000     0.292390000000     0.173930000000     0.0269626  
H798     H      0.995550000000     0.308410000000     0.162680000000     0.0348596  
H799     H      0.951720000000     0.237520000000     0.104190000000     0.0298703  
H800     H      0.948680000000     0.268380000000     0.159630000000     0.0344944  
H801     H      0.749230000000     0.068020000000     0.882980000000     0.0419416  
H802     H      0.689100000000     0.061090000000     0.881080000000     0.0423058  
H803     H      0.675120000000     0.502060000000     0.878590000000     0.0427153  
H804     H      0.770520000000     0.063030000000     0.923310000000     0.0424539  
H805     H      0.778130000000     0.013880000000     0.885570000000     0.0422683  
H806     H      0.755380000000     0.503430000000     0.923650000000     0.0422186  
H807     H      0.667610000000     0.549460000000     0.919760000000     0.0425963  
H808     H      0.695320000000     0.495500000000     0.919410000000     0.0421954  
H809     H      0.764620000000     0.059910000000     0.633370000000     0.0421114  
H810     H      0.704320000000     0.067760000000     0.633560000000     0.041659   
H811     H      0.673970000000     0.514510000000     0.634600000000     0.04345    
H812     H      0.784650000000     0.046390000000     0.672370000000     0.0422842  
H813     H      0.776850000000     0.000780000000     0.628860000000     0.0424703  
H814     H      0.756080000000     0.493460000000     0.669180000000     0.0399248  
H815     H      0.682200000000     0.562690000000     0.673380000000     0.0422551  
H816     H      0.695940000000     0.502640000000     0.672690000000     0.0448999  
H817     H      0.965220000000     0.055370000000     0.895390000000     0.0396129  
H818     H      0.523070000000     0.039190000000     0.906190000000     0.0427893  
H819     H      0.528230000000     0.478990000000     0.916630000000     0.0420625  
H820     H      0.946670000000     0.046350000000     0.854180000000     0.0421419  
H821     H      0.929250000000     0.007470000000     0.901410000000     0.043036   
H822     H      0.950530000000     0.487090000000     0.866910000000     0.0424899  
H823     H      0.545830000000     0.519870000000     0.872250000000     0.0427611  
H824     H      0.509070000000     0.471500000000     0.875450000000     0.0402293  
H825     H      0.984360000000     0.474540000000     0.614310000000     0.041105   
H826     H      0.544530000000     0.482300000000     0.615890000000     0.0412416  
H827     H      0.554110000000     0.041100000000     0.611340000000     0.0425172  
H828     H      0.961890000000     0.475150000000     0.654190000000     0.0412277  
H829     H      0.951630000000     0.026840000000     0.622980000000     0.0427793  
H830     H      0.975600000000     0.035970000000     0.660220000000     0.0453434  
H831     H      0.563520000000     0.495450000000     0.655680000000     0.042579   
H832     H      0.535530000000     0.047860000000     0.653030000000     0.0399963  
H833     H      0.777070000000     0.152400000000     0.784940000000     0.0407856  
H834     H      0.727000000000     0.149950000000     0.737490000000     0.0416562  
H835     H      0.678510000000     0.128160000000     0.766240000000     0.0410889  
H836     H      0.774010000000     0.183390000000     0.817540000000     0.0384026  
H837     H      0.757880000000     0.126910000000     0.838020000000     0.0373217  
H838     H      0.727490000000     0.157500000000     0.843440000000     0.0376049  
H839     H      0.697340000000     0.181550000000     0.742340000000     0.0390977  
H840     H      0.680560000000     0.159390000000     0.799220000000     0.0386922  
H841     H      0.755300000000     0.394690000000     0.704130000000     0.0385948  
H842     H      0.797810000000     0.394390000000     0.755600000000     0.0361995  
H843     H      0.782610000000     0.436510000000     0.795010000000     0.0419135  
H844     H      0.719020000000     0.371450000000     0.710680000000     0.0381298  
H845     H      0.710200000000     0.431440000000     0.716080000000     0.0367297  
H846     H      0.700290000000     0.409560000000     0.755360000000     0.0424757  
H847     H      0.786500000000     0.374810000000     0.795520000000     0.0402658  
H848     H      0.747110000000     0.415460000000     0.808300000000     0.0401108  
H849     H      0.735360000000     0.157180000000     0.589680000000     0.0387841  
H850     H      0.685520000000     0.162510000000     0.548510000000     0.0401937  
H851     H      0.694940000000     0.184940000000     0.991290000000     0.0384788  
H852     H      0.763350000000     0.124950000000     0.581400000000     0.038927   
H853     H      0.780650000000     0.181010000000     0.559570000000     0.0368839  
H854     H      0.776220000000     0.153030000000     0.026770000000     0.0387819  
H855     H      0.679150000000     0.131130000000     0.516440000000     0.0418856  
H856     H      0.723360000000     0.152730000000     0.983620000000     0.0414695  
H857     H      0.783270000000     0.401160000000     0.006730000000     0.0370931  
H858     H      0.730610000000     0.397890000000     0.557730000000     0.0415174  
H859     H      0.682610000000     0.426920000000     0.536020000000     0.041738   
H860     H      0.773790000000     0.378810000000     0.968140000000     0.0384573  
H861     H      0.765670000000     0.441720000000     0.967020000000     0.0395384  
H862     H      0.734050000000     0.416650000000     0.950560000000     0.0367891  
H863     H      0.698400000000     0.370330000000     0.547000000000     0.0371875  
H864     H      0.682460000000     0.403500000000     0.496380000000     0.0398188  
H865     H      0.748440000000     0.236410000000     0.868400000000     0.0370666  
H866     H      0.701530000000     0.276360000000     0.867580000000     0.0332472  
H867     H      0.701750000000     0.308250000000     0.922480000000     0.0310248  
H868     H      0.787780000000     0.252200000000     0.859180000000     0.032791   
H869     H      0.778960000000     0.242510000000     0.923360000000     0.0303603  
H870     H      0.787980000000     0.284250000000     0.914000000000     0.033594   
H871     H      0.710630000000     0.318040000000     0.858070000000     0.0286935  
H872     H      0.741080000000     0.324110000000     0.913400000000     0.0366516  
H873     H      0.754310000000     0.232810000000     0.617220000000     0.036782   
H874     H      0.702180000000     0.264920000000     0.617790000000     0.0350807  
H875     H      0.697920000000     0.296270000000     0.672780000000     0.0334124  
H876     H      0.790810000000     0.254540000000     0.608210000000     0.0302119  
H877     H      0.783750000000     0.242340000000     0.672340000000     0.0284169  
H878     H      0.786770000000     0.285100000000     0.663800000000     0.0332732  
H879     H      0.704560000000     0.307660000000     0.608800000000     0.0301775  
H880     H      0.734520000000     0.317750000000     0.663520000000     0.0387212  
H881     H      0.513130000000     0.132890000000     0.696320000000     0.0390527  
H882     H      0.557880000000     0.133650000000     0.743430000000     0.0395546  
H883     H      0.537920000000     0.156100000000     0.798930000000     0.0391506  
H884     H      0.982580000000     0.102150000000     0.699010000000     0.0384009  
H885     H      0.964490000000     0.157570000000     0.719840000000     0.0388624  
H886     H      0.961090000000     0.126350000000     0.752160000000     0.0404106  
H887     H      0.557570000000     0.102350000000     0.776330000000     0.0416972  
H888     H      0.007860000000     0.124670000000     0.801830000000     0.0409712  
H889     H      0.947680000000     0.384230000000     0.787110000000     0.0389937  
H890     H      0.997700000000     0.384430000000     0.829590000000     0.0371482  
H891     H      0.536030000000     0.346400000000     0.806440000000     0.0396755  
H892     H      0.949390000000     0.410670000000     0.749610000000     0.0409589  
H893     H      0.957830000000     0.352430000000     0.733740000000     0.0371999  
H894     H      0.492260000000     0.377290000000     0.723420000000     0.0401707  
H895     H      0.532230000000     0.407550000000     0.816730000000     0.0394055  
H896     H      0.543290000000     0.371200000000     0.768930000000     0.0385871  
H897     H      0.870030000000     0.300630000000     0.793530000000     0.037136   
H898     H      0.866970000000     0.295400000000     0.723450000000     0.0371168  
H899     H      0.898700000000     0.248640000000     0.706410000000     0.0403144  
H900     H      0.843850000000     0.274910000000     0.818400000000     0.0413203  
H901     H      0.899990000000     0.255300000000     0.818790000000     0.0388292  
H902     H      0.872940000000     0.226570000000     0.799220000000     0.0373266  
H903     H      0.840460000000     0.264960000000     0.706390000000     0.0378003  
H904     H      0.873070000000     0.221740000000     0.730370000000     0.0360899  
H905     H      0.623050000000     0.235830000000     0.730550000000     0.0387498  
H906     H      0.622990000000     0.230710000000     0.800060000000     0.0364657  
H907     H      0.649240000000     0.278250000000     0.825060000000     0.0378974  
H908     H      0.593310000000     0.261800000000     0.711150000000     0.0401306  
H909     H      0.647100000000     0.287820000000     0.712840000000     0.040194   
H910     H      0.617990000000     0.309580000000     0.738130000000     0.0361346  
H911     H      0.593940000000     0.254200000000     0.823630000000     0.0404421  
H912     H      0.619800000000     0.304750000000     0.805870000000     0.0367003  
H913     H      0.928910000000     0.140430000000     0.489950000000     0.038693   
H914     H      0.983480000000     0.142550000000     0.948580000000     0.0384293  
H915     H      0.527400000000     0.171210000000     0.976090000000     0.0372566  
H916     H      0.932090000000     0.112520000000     0.526130000000     0.0406093  
H917     H      0.945150000000     0.170180000000     0.542570000000     0.0364188  
H918     H      0.478140000000     0.142640000000     0.549830000000     0.0402542  
H919     H      0.513340000000     0.113220000000     0.960040000000     0.0396051  
H920     H      0.528660000000     0.143330000000     0.011890000000     0.038202   
H921     H      0.489370000000     0.395470000000     0.972350000000     0.0406587  
H922     H      0.529220000000     0.379020000000     0.574910000000     0.0373943  
H923     H      0.984310000000     0.417690000000     0.574720000000     0.0347603  
H924     H      0.460070000000     0.363320000000     0.975670000000     0.0390535  
H925     H      0.437670000000     0.415400000000     0.996510000000     0.042476   
H926     H      0.940160000000     0.386190000000     0.031490000000     0.0408408  
H927     H      0.991050000000     0.358570000000     0.575660000000     0.0407388  
H928     H      0.966870000000     0.398740000000     0.536600000000     0.0441488  
H929     H      0.859210000000     0.234580000000     0.984220000000     0.0365338  
H930     H      0.864000000000     0.248580000000     0.550190000000     0.0373459  
H931     H      0.900510000000     0.292140000000     0.566810000000     0.0424655  
H932     H      0.838460000000     0.263850000000     0.957890000000     0.0385587  
H933     H      0.898320000000     0.269060000000     0.954990000000     0.0388826  
H934     H      0.877860000000     0.305180000000     0.968820000000     0.0358786  
H935     H      0.842070000000     0.282030000000     0.568290000000     0.0406196  
H936     H      0.878810000000     0.321010000000     0.541220000000     0.0373537  
H937     H      0.619530000000     0.238150000000     0.980730000000     0.0363787  
H938     H      0.618290000000     0.231670000000     0.048950000000     0.0370806  
H939     H      0.648460000000     0.266680000000     0.575780000000     0.0391917  
H940     H      0.591780000000     0.265660000000     0.960950000000     0.0401371  
H941     H      0.646130000000     0.289280000000     0.963330000000     0.0406578  
H942     H      0.618530000000     0.298680000000     0.486820000000     0.0391499  
H943     H      0.590220000000     0.249350000000     0.575340000000     0.0387868  
H944     H      0.621710000000     0.296420000000     0.557990000000     0.0356537  
H945     H      0.952830000000     0.254170000000     0.911470000000     0.033429   
H946     H      0.002820000000     0.218560000000     0.915760000000     0.037012   
H947     H      0.534530000000     0.223030000000     0.861240000000     0.031957   
H948     H      0.958100000000     0.297100000000     0.917300000000     0.0295526  
H949     H      0.952150000000     0.281730000000     0.853890000000     0.0290029  
H950     H      0.489740000000     0.301520000000     0.862740000000     0.0373525  
H951     H      0.540430000000     0.238340000000     0.924640000000     0.0304863  
H952     H      0.539740000000     0.265950000000     0.867110000000     0.0353865  
H953     H      0.538860000000     0.263130000000     0.618670000000     0.0338381  
H954     H      0.500990000000     0.214290000000     0.616120000000     0.0323316  
H955     H      0.968630000000     0.212770000000     0.670530000000     0.033164   
H956     H      0.521990000000     0.302290000000     0.609570000000     0.0324706  
H957     H      0.530410000000     0.293390000000     0.673920000000     0.0276524  
H958     H      0.988940000000     0.300890000000     0.663380000000     0.0349702  
H959     H      0.959470000000     0.222150000000     0.606070000000     0.0292547  
H960     H      0.951290000000     0.251750000000     0.661470000000     0.0357437  
H961     H      0.748170000000     0.568270000000     0.384230000000     0.0421616  
H962     H      0.687740000000     0.563450000000     0.383630000000     0.0414196  
H963     H      0.671880000000     0.005220000000     0.378240000000     0.0425423  
H964     H      0.770120000000     0.560900000000     0.423710000000     0.0426978  
H965     H      0.775350000000     0.513180000000     0.383610000000     0.0422589  
H966     H      0.752900000000     0.001940000000     0.421660000000     0.0416698  
H967     H      0.666760000000     0.050730000000     0.422250000000     0.0420106  
H968     H      0.692520000000     0.996050000000     0.418230000000     0.0421342  
H969     H      0.761220000000     0.562840000000     0.132650000000     0.0421006  
H970     H      0.700770000000     0.569190000000     0.132240000000     0.0415936  
H971     H      0.671900000000     0.015170000000     0.132830000000     0.0428484  
H972     H      0.781300000000     0.550060000000     0.171900000000     0.0423831  
H973     H      0.775140000000     0.504000000000     0.128730000000     0.0426913  
H974     H      0.754010000000     0.996370000000     0.168770000000     0.0404005  
H975     H      0.678410000000     0.063510000000     0.171810000000     0.0419814  
H976     H      0.693670000000     0.003920000000     0.171310000000     0.0441642  
H977     H      0.949130000000     0.549930000000     0.400570000000     0.0399902  
H978     H      0.509830000000     0.548750000000     0.400500000000     0.0427361  
H979     H      0.532620000000     0.991440000000     0.404400000000     0.0415056  
H980     H      0.927320000000     0.535330000000     0.363190000000     0.0426661  
H981     H      0.929070000000     0.494580000000     0.412980000000     0.042933   
H982     H      0.947370000000     0.979560000000     0.373600000000     0.0408817  
H983     H      0.531110000000     0.037240000000     0.361770000000     0.0417108  
H984     H      0.508350000000     0.980080000000     0.367800000000     0.0425623  
H985     H      0.952970000000     0.973010000000     0.114680000000     0.0410623  
H986     H      0.512450000000     0.985170000000     0.114690000000     0.0430211  
H987     H      0.521990000000     0.545420000000     0.118560000000     0.0427538  
H988     H      0.930920000000     0.974220000000     0.154990000000     0.0409733  
H989     H      0.920250000000     0.524160000000     0.118810000000     0.0427385  
H990     H      0.940100000000     0.534670000000     0.158660000000     0.0455493  
H991     H      0.532370000000     0.995540000000     0.154820000000     0.0425134  
H992     H      0.499920000000     0.546750000000     0.158720000000     0.0407466  
H993     H      0.773860000000     0.654410000000     0.284490000000     0.0408584  
H994     H      0.724100000000     0.652260000000     0.236810000000     0.0415435  
H995     H      0.675220000000     0.631050000000     0.265330000000     0.0407891  
H996     H      0.771000000000     0.685550000000     0.316940000000     0.038313   
H997     H      0.754190000000     0.629340000000     0.337620000000     0.0375202  
H998     H      0.724050000000     0.660250000000     0.342680000000     0.0376922  
H999     H      0.694670000000     0.684140000000     0.241280000000     0.0391824  
H1000    H      0.677400000000     0.662380000000     0.298190000000     0.0385247  
H1001    H      0.751720000000     0.896780000000     0.204400000000     0.0387236  
H1002    H      0.793910000000     0.896650000000     0.256440000000     0.0365308  
H1003    H      0.778610000000     0.939440000000     0.294880000000     0.0420309  
H1004    H      0.715290000000     0.873780000000     0.210900000000     0.0379663  
H1005    H      0.706640000000     0.933810000000     0.215550000000     0.03631    
H1006    H      0.696450000000     0.912390000000     0.255040000000     0.042422   
H1007    H      0.781950000000     0.877660000000     0.296450000000     0.0406482  
H1008    H      0.742880000000     0.918800000000     0.308220000000     0.0401892  
H1009    H      0.731210000000     0.658620000000     0.089720000000     0.0386044  
H1010    H      0.681070000000     0.662990000000     0.048940000000     0.0396131  
H1011    H      0.700010000000     0.682070000000     0.489510000000     0.0382751  
H1012    H      0.759930000000     0.627090000000     0.081110000000     0.0390926  
H1013    H      0.776130000000     0.683330000000     0.060220000000     0.0373053  
H1014    H      0.780150000000     0.649680000000     0.527140000000     0.0391502  
H1015    H      0.675770000000     0.632260000000     0.015940000000     0.0417776  
H1016    H      0.727720000000     0.648720000000     0.484190000000     0.0413545  
H1017    H      0.780480000000     0.898520000000     0.507670000000     0.0378293  
H1018    H      0.732930000000     0.901920000000     0.056280000000     0.0418585  
H1019    H      0.683500000000     0.928150000000     0.033450000000     0.0415184  
H1020    H      0.771220000000     0.876640000000     0.468680000000     0.0388901  
H1021    H      0.763330000000     0.939120000000     0.467410000000     0.039539   
H1022    H      0.730970000000     0.914510000000     0.451810000000     0.0369687  
H1023    H      0.701530000000     0.872890000000     0.047360000000     0.037734   
H1024    H      0.685720000000     0.903640000000     0.994450000000     0.0407413  
H1025    H      0.752800000000     0.737980000000     0.366930000000     0.0376859  
H1026    H      0.700580000000     0.770560000000     0.367940000000     0.0322716  
H1027    H      0.697180000000     0.800600000000     0.423910000000     0.031329   
H1028    H      0.789270000000     0.759570000000     0.357520000000     0.0334055  
H1029    H      0.783220000000     0.747190000000     0.421360000000     0.0304954  
H1030    H      0.785850000000     0.790050000000     0.413240000000     0.0334895  
H1031    H      0.703430000000     0.813390000000     0.359840000000     0.0289205  
H1032    H      0.733560000000     0.822420000000     0.414740000000     0.0370699  
H1033    H      0.750560000000     0.735080000000     0.117350000000     0.0367684  
H1034    H      0.699970000000     0.769610000000     0.117170000000     0.0346938  
H1035    H      0.696480000000     0.801010000000     0.172210000000     0.0331267  
H1036    H      0.788140000000     0.755070000000     0.108850000000     0.0300853  
H1037    H      0.779820000000     0.743270000000     0.172880000000     0.028297   
H1038    H      0.784790000000     0.785850000000     0.164330000000     0.0336837  
H1039    H      0.704450000000     0.812200000000     0.108310000000     0.0300361  
H1040    H      0.734120000000     0.820800000000     0.163480000000     0.0385689  
H1041    H      0.484030000000     0.631980000000     0.194280000000     0.0389527  
H1042    H      0.537050000000     0.629450000000     0.231800000000     0.0399447  
H1043    H      0.531100000000     0.656510000000     0.288990000000     0.0361196  
H1044    H      0.950680000000     0.607520000000     0.207970000000     0.0397115  
H1045    H      0.947460000000     0.667560000000     0.224630000000     0.0387731  
H1046    H      0.943480000000     0.639570000000     0.260100000000     0.0388485  
H1047    H      0.538720000000     0.600090000000     0.266600000000     0.0417992  
H1048    H      0.997640000000     0.630440000000     0.299800000000     0.0409398  
H1049    H      0.929360000000     0.880040000000     0.284090000000     0.0388409  
H1050    H      0.974720000000     0.884230000000     0.331050000000     0.0369203  
H1051    H      0.521290000000     0.855130000000     0.309940000000     0.0390692  
H1052    H      0.930070000000     0.908810000000     0.248540000000     0.0403166  
H1053    H      0.948410000000     0.853230000000     0.230500000000     0.0391922  
H1054    H      0.479180000000     0.883580000000     0.224790000000     0.0408025  
H1055    H      0.506070000000     0.913530000000     0.324260000000     0.0373311  
H1056    H      0.526780000000     0.883350000000     0.274930000000     0.040204   
H1057    H      0.866880000000     0.805290000000     0.292950000000     0.0370205  
H1058    H      0.864080000000     0.799370000000     0.223320000000     0.0371735  
H1059    H      0.895270000000     0.751980000000     0.206770000000     0.0401904  
H1060    H      0.840390000000     0.780250000000     0.318230000000     0.040879   
H1061    H      0.896270000000     0.759990000000     0.319120000000     0.0393967  
H1062    H      0.869040000000     0.731290000000     0.299760000000     0.0374192  
H1063    H      0.837340000000     0.769120000000     0.206240000000     0.0377192  
H1064    H      0.869280000000     0.725730000000     0.231120000000     0.0358266  
H1065    H      0.618600000000     0.739470000000     0.229570000000     0.0384927  
H1066    H      0.618660000000     0.733940000000     0.299030000000     0.036234   
H1067    H      0.645880000000     0.780700000000     0.324500000000     0.0377502  
H1068    H      0.589530000000     0.766400000000     0.210500000000     0.0390819  
H1069    H      0.644130000000     0.790790000000     0.212320000000     0.0402929  
H1070    H      0.615570000000     0.813290000000     0.237610000000     0.0359215  
H1071    H      0.590170000000     0.757860000000     0.322890000000     0.0399333  
H1072    H      0.617060000000     0.807980000000     0.305470000000     0.0369046  
H1073    H      0.932880000000     0.647900000000     0.990050000000     0.0403256  
H1074    H      0.973860000000     0.640260000000     0.443560000000     0.0375584  
H1075    H      0.518620000000     0.672680000000     0.463790000000     0.0387946  
H1076    H      0.929520000000     0.619290000000     0.025490000000     0.0414828  
H1077    H      0.946640000000     0.674540000000     0.045700000000     0.0355716  
H1078    H      0.476320000000     0.643750000000     0.054940000000     0.0400503  
H1079    H      0.507690000000     0.613720000000     0.449640000000     0.0381092  
H1080    H      0.526190000000     0.645340000000     0.499140000000     0.0405967  
H1081    H      0.562000000000     0.877300000000     0.515920000000     0.0350048  
H1082    H      0.536950000000     0.894850000000     0.021050000000     0.037807   
H1083    H      0.015800000000     0.925380000000     0.069380000000     0.0394344  
H1084    H      0.541720000000     0.862510000000     0.477890000000     0.0406426  
H1085    H      0.545560000000     0.924870000000     0.486560000000     0.0413111  
H1086    H      0.007390000000     0.908230000000     0.475090000000     0.0396314  
H1087    H      0.032240000000     0.866380000000     0.055990000000     0.0381381  
H1088    H      0.986280000000     0.894880000000     0.078500000000     0.0389528  
H1089    H      0.862070000000     0.742780000000     0.478660000000     0.0370746  
H1090    H      0.862520000000     0.747730000000     0.053390000000     0.0359422  
H1091    H      0.899950000000     0.792130000000     0.064890000000     0.0417639  
H1092    H      0.840600000000     0.774220000000     0.456210000000     0.0384213  
H1093    H      0.900870000000     0.780710000000     0.455010000000     0.0374417  
H1094    H      0.879670000000     0.814750000000     0.473160000000     0.0365102  
H1095    H      0.841390000000     0.783030000000     0.068410000000     0.0406441  
H1096    H      0.877890000000     0.818610000000     0.036470000000     0.037802   
H1097    H      0.620410000000     0.724400000000     0.486080000000     0.0360739  
H1098    H      0.617280000000     0.722250000000     0.553280000000     0.0365962  
H1099    H      0.647670000000     0.776520000000     0.075370000000     0.0387592  
H1100    H      0.592570000000     0.749470000000     0.462670000000     0.0401987  
H1101    H      0.646590000000     0.773620000000     0.463480000000     0.0403052  
H1102    H      0.618060000000     0.812240000000     0.989030000000     0.038352   
H1103    H      0.590700000000     0.756440000000     0.073280000000     0.0394352  
H1104    H      0.619950000000     0.805460000000     0.057580000000     0.0355427  
H1105    H      0.952850000000     0.760270000000     0.413360000000     0.0327879  
H1106    H      0.000710000000     0.721460000000     0.414730000000     0.037765   
H1107    H      0.531030000000     0.725120000000     0.359210000000     0.0313687  
H1108    H      0.961090000000     0.802660000000     0.419490000000     0.0291289  
H1109    H      0.951950000000     0.788470000000     0.356140000000     0.0288946  
H1110    H      0.490890000000     0.805890000000     0.363690000000     0.0361276  
H1111    H      0.539710000000     0.738650000000     0.422550000000     0.0321149  
H1112    H      0.538720000000     0.767570000000     0.365750000000     0.0354186  
H1113    H      0.537580000000     0.761380000000     0.118510000000     0.0337588  
H1114    H      0.490480000000     0.721260000000     0.115360000000     0.0357441  
H1115    H      0.957340000000     0.726550000000     0.168800000000     0.032962   
H1116    H      0.528900000000     0.803160000000     0.109170000000     0.0304156  
H1117    H      0.534370000000     0.792390000000     0.173930000000     0.0269565  
H1118    H      0.995550000000     0.808420000000     0.162680000000     0.0348461  
H1119    H      0.951720000000     0.737520000000     0.104190000000     0.0298697  
H1120    H      0.948680000000     0.768380000000     0.159630000000     0.0344923  
H1121    H      0.749230000000     0.568020000000     0.882980000000     0.0419382  
H1122    H      0.689100000000     0.561090000000     0.881080000000     0.0423135  
H1123    H      0.675120000000     0.002060000000     0.878590000000     0.042711   
H1124    H      0.770520000000     0.563030000000     0.923310000000     0.0424601  
H1125    H      0.778130000000     0.513880000000     0.885570000000     0.0422928  
H1126    H      0.755380000000     0.003430000000     0.923650000000     0.0421584  
H1127    H      0.667610000000     0.049460000000     0.919760000000     0.0425639  
H1128    H      0.695320000000     0.995500000000     0.919410000000     0.0423896  
H1129    H      0.764610000000     0.559910000000     0.633370000000     0.042096   
H1130    H      0.704320000000     0.567760000000     0.633560000000     0.0416502  
H1131    H      0.673970000000     0.014510000000     0.634600000000     0.0434182  
H1132    H      0.784650000000     0.546390000000     0.672370000000     0.0422832  
H1133    H      0.776860000000     0.500780000000     0.628860000000     0.0424541  
H1134    H      0.756080000000     0.993460000000     0.669180000000     0.0401294  
H1135    H      0.682200000000     0.062690000000     0.673380000000     0.0422543  
H1136    H      0.695940000000     0.002630000000     0.672690000000     0.0448353  
H1137    H      0.965220000000     0.555360000000     0.895390000000     0.0396507  
H1138    H      0.523070000000     0.539190000000     0.906190000000     0.0427753  
H1139    H      0.528230000000     0.978990000000     0.916630000000     0.042093   
H1140    H      0.946670000000     0.546350000000     0.854180000000     0.0421927  
H1141    H      0.929250000000     0.507470000000     0.901410000000     0.0429909  
H1142    H      0.950530000000     0.987090000000     0.866910000000     0.0427224  
H1143    H      0.545830000000     0.019870000000     0.872250000000     0.0427544  
H1144    H      0.509070000000     0.971500000000     0.875450000000     0.0402512  
H1145    H      0.984350000000     0.974540000000     0.614310000000     0.0410968  
H1146    H      0.544540000000     0.982300000000     0.615890000000     0.0412413  
H1147    H      0.554110000000     0.541100000000     0.611340000000     0.0424932  
H1148    H      0.961890000000     0.975150000000     0.654190000000     0.0412224  
H1149    H      0.951630000000     0.526840000000     0.622980000000     0.0427588  
H1150    H      0.975600000000     0.535980000000     0.660220000000     0.0453193  
H1151    H      0.563520000000     0.995450000000     0.655680000000     0.0425938  
H1152    H      0.535530000000     0.547860000000     0.653030000000     0.0399815  
H1153    H      0.777070000000     0.652400000000     0.784940000000     0.0407772  
H1154    H      0.727000000000     0.649950000000     0.737490000000     0.0416679  
H1155    H      0.678510000000     0.628160000000     0.766240000000     0.0410945  
H1156    H      0.774010000000     0.683390000000     0.817540000000     0.0383925  
H1157    H      0.757880000000     0.626910000000     0.838020000000     0.0373255  
H1158    H      0.727490000000     0.657500000000     0.843440000000     0.0376056  
H1159    H      0.697340000000     0.681550000000     0.742340000000     0.0391042  
H1160    H      0.680570000000     0.659390000000     0.799220000000     0.0387034  
H1161    H      0.755300000000     0.894690000000     0.704130000000     0.0386085  
H1162    H      0.797810000000     0.894390000000     0.755600000000     0.0362133  
H1163    H      0.782610000000     0.936510000000     0.795010000000     0.0419488  
H1164    H      0.719020000000     0.871450000000     0.710680000000     0.0381344  
H1165    H      0.710200000000     0.931440000000     0.716080000000     0.0367594  
H1166    H      0.700290000000     0.909560000000     0.755360000000     0.0424915  
H1167    H      0.786500000000     0.874810000000     0.795520000000     0.040274   
H1168    H      0.747110000000     0.915460000000     0.808300000000     0.0401342  
H1169    H      0.735360000000     0.657180000000     0.589680000000     0.0387747  
H1170    H      0.685520000000     0.662510000000     0.548510000000     0.0401966  
H1171    H      0.694940000000     0.684940000000     0.991290000000     0.0384398  
H1172    H      0.763350000000     0.624950000000     0.581400000000     0.0389208  
H1173    H      0.780660000000     0.681010000000     0.559570000000     0.0368452  
H1174    H      0.776220000000     0.653030000000     0.026770000000     0.0387789  
H1175    H      0.679150000000     0.631130000000     0.516440000000     0.0418883  
H1176    H      0.723350000000     0.652730000000     0.983620000000     0.0414432  
H1177    H      0.783270000000     0.901160000000     0.006730000000     0.0371106  
H1178    H      0.730610000000     0.897890000000     0.557730000000     0.0415329  
H1179    H      0.682610000000     0.926920000000     0.536020000000     0.0417688  
H1180    H      0.773790000000     0.878810000000     0.968140000000     0.0384647  
H1181    H      0.765670000000     0.941720000000     0.967020000000     0.0395798  
H1182    H      0.734050000000     0.916650000000     0.950560000000     0.036808   
H1183    H      0.698400000000     0.870330000000     0.547000000000     0.0371894  
H1184    H      0.682460000000     0.903500000000     0.496380000000     0.0398354  
H1185    H      0.748440000000     0.736410000000     0.868400000000     0.0370644  
H1186    H      0.701520000000     0.776360000000     0.867580000000     0.0332328  
H1187    H      0.701740000000     0.808250000000     0.922480000000     0.031017   
H1188    H      0.787780000000     0.752200000000     0.859180000000     0.0327924  
H1189    H      0.778960000000     0.742510000000     0.923360000000     0.0303593  
H1190    H      0.787980000000     0.784250000000     0.914000000000     0.0335916  
H1191    H      0.710630000000     0.818040000000     0.858070000000     0.0286901  
H1192    H      0.741080000000     0.824110000000     0.913400000000     0.0366487  
H1193    H      0.754310000000     0.732810000000     0.617220000000     0.0367725  
H1194    H      0.702180000000     0.764920000000     0.617790000000     0.035042   
H1195    H      0.697930000000     0.796270000000     0.672780000000     0.0334338  
H1196    H      0.790810000000     0.754540000000     0.608210000000     0.0302102  
H1197    H      0.783750000000     0.742340000000     0.672340000000     0.0284402  
H1198    H      0.786770000000     0.785100000000     0.663800000000     0.0332967  
H1199    H      0.704560000000     0.807660000000     0.608800000000     0.0301429  
H1200    H      0.734520000000     0.817750000000     0.663520000000     0.0387294  
H1201    H      0.513130000000     0.632890000000     0.696320000000     0.0390481  
H1202    H      0.557880000000     0.633650000000     0.743430000000     0.039561   
H1203    H      0.537920000000     0.656110000000     0.798930000000     0.0391582  
H1204    H      0.982580000000     0.602150000000     0.699010000000     0.0384095  
H1205    H      0.964490000000     0.657580000000     0.719840000000     0.0388879  
H1206    H      0.961090000000     0.626350000000     0.752160000000     0.0404339  
H1207    H      0.557570000000     0.602350000000     0.776330000000     0.041704   
H1208    H      0.007860000000     0.624670000000     0.801830000000     0.0409686  
H1209    H      0.947680000000     0.884230000000     0.787110000000     0.0390068  
H1210    H      0.997700000000     0.884430000000     0.829590000000     0.037162   
H1211    H      0.536030000000     0.846400000000     0.806440000000     0.0396821  
H1212    H      0.949390000000     0.910670000000     0.749610000000     0.0409803  
H1213    H      0.957840000000     0.852430000000     0.733740000000     0.0372178  
H1214    H      0.492260000000     0.877290000000     0.723420000000     0.0401747  
H1215    H      0.532230000000     0.907550000000     0.816730000000     0.0394253  
H1216    H      0.543290000000     0.871200000000     0.768930000000     0.0385937  
H1217    H      0.870030000000     0.800630000000     0.793530000000     0.0371403  
H1218    H      0.866970000000     0.795400000000     0.723450000000     0.0371206  
H1219    H      0.898700000000     0.748640000000     0.706410000000     0.0403181  
H1220    H      0.843850000000     0.774910000000     0.818400000000     0.0413141  
H1221    H      0.899990000000     0.755300000000     0.818790000000     0.0388323  
H1222    H      0.872940000000     0.726570000000     0.799220000000     0.0373253  
H1223    H      0.840460000000     0.764960000000     0.706390000000     0.0378007  
H1224    H      0.873070000000     0.721740000000     0.730370000000     0.0360897  
H1225    H      0.623050000000     0.735830000000     0.730550000000     0.0387538  
H1226    H      0.622990000000     0.730720000000     0.800060000000     0.0364822  
H1227    H      0.649240000000     0.778250000000     0.825060000000     0.0379007  
H1228    H      0.593320000000     0.761800000000     0.711150000000     0.0401309  
H1229    H      0.647100000000     0.787820000000     0.712840000000     0.0402012  
H1230    H      0.617990000000     0.809580000000     0.738130000000     0.0361374  
H1231    H      0.593940000000     0.754200000000     0.823630000000     0.0404574  
H1232    H      0.619800000000     0.804750000000     0.805870000000     0.0367021  
H1233    H      0.928910000000     0.640430000000     0.489950000000     0.0387032  
H1234    H      0.983480000000     0.642550000000     0.948580000000     0.0384303  
H1235    H      0.527400000000     0.671210000000     0.976090000000     0.0372436  
H1236    H      0.932090000000     0.612520000000     0.526130000000     0.0406232  
H1237    H      0.945150000000     0.670170000000     0.542570000000     0.0364144  
H1238    H      0.478140000000     0.642640000000     0.549830000000     0.0402558  
H1239    H      0.513340000000     0.613230000000     0.960040000000     0.0396119  
H1240    H      0.528670000000     0.643330000000     0.011890000000     0.0381858  
H1241    H      0.489370000000     0.895470000000     0.972350000000     0.0406801  
H1242    H      0.529220000000     0.879020000000     0.574910000000     0.0373933  
H1243    H      0.984310000000     0.917690000000     0.574720000000     0.0347336  
H1244    H      0.460080000000     0.863320000000     0.975670000000     0.0390782  
H1245    H      0.437670000000     0.915400000000     0.996510000000     0.0424873  
H1246    H      0.940150000000     0.886190000000     0.031490000000     0.0408283  
H1247    H      0.991050000000     0.858570000000     0.575660000000     0.040753   
H1248    H      0.966860000000     0.898740000000     0.536600000000     0.0441107  
H1249    H      0.859200000000     0.734580000000     0.984220000000     0.0365403  
H1250    H      0.864010000000     0.748580000000     0.550190000000     0.0373405  
H1251    H      0.900510000000     0.792140000000     0.566810000000     0.0424618  
H1252    H      0.838460000000     0.763860000000     0.957890000000     0.0385621  
H1253    H      0.898320000000     0.769060000000     0.954990000000     0.0388814  
H1254    H      0.877850000000     0.805180000000     0.968820000000     0.0358758  
H1255    H      0.842070000000     0.782030000000     0.568290000000     0.0406201  
H1256    H      0.878810000000     0.821010000000     0.541220000000     0.0373629  
H1257    H      0.619530000000     0.738150000000     0.980730000000     0.036376   
H1258    H      0.618290000000     0.731670000000     0.048950000000     0.0370801  
H1259    H      0.648460000000     0.766680000000     0.575780000000     0.0391882  
H1260    H      0.591780000000     0.765660000000     0.960950000000     0.0401367  
H1261    H      0.646120000000     0.789280000000     0.963330000000     0.0406719  
H1262    H      0.618530000000     0.798680000000     0.486820000000     0.0391534  
H1263    H      0.590220000000     0.749350000000     0.575340000000     0.038794   
H1264    H      0.621710000000     0.796420000000     0.557990000000     0.035654   
H1265    H      0.952830000000     0.754170000000     0.911470000000     0.0334268  
H1266    H      0.002820000000     0.718560000000     0.915760000000     0.0370103  
H1267    H      0.534530000000     0.723030000000     0.861240000000     0.031964   
H1268    H      0.958100000000     0.797100000000     0.917300000000     0.0295501  
H1269    H      0.952150000000     0.781730000000     0.853890000000     0.0290066  
H1270    H      0.489740000000     0.801520000000     0.862740000000     0.0373595  
H1271    H      0.540430000000     0.738340000000     0.924640000000     0.0304922  
H1272    H      0.539740000000     0.765950000000     0.867110000000     0.0353913  
H1273    H      0.538860000000     0.763130000000     0.618670000000     0.0338391  
H1274    H      0.500990000000     0.714290000000     0.616120000000     0.0323336  
H1275    H      0.968630000000     0.712770000000     0.670530000000     0.0331387  
H1276    H      0.521990000000     0.802290000000     0.609570000000     0.0324731  
H1277    H      0.530410000000     0.793390000000     0.673920000000     0.0276648  
H1278    H      0.988940000000     0.800890000000     0.663380000000     0.0349694  
H1279    H      0.959470000000     0.722150000000     0.606070000000     0.0292577  
H1280    H      0.951290000000     0.751760000000     0.661470000000     0.0357245  
N1       N      0.223740000000     0.009420000000     0.376820000000    -0.171173   
N2       N      0.218380000000     0.555510000000     0.427140000000    -0.170964   
N3       N      0.223410000000     0.009450000000     0.126690000000    -0.170489   
N4       N      0.229870000000     0.556850000000     0.175880000000    -0.170659   
N5       N      0.481070000000     0.493190000000     0.412480000000    -0.171512   
N6       N      0.479140000000     0.035720000000     0.358470000000    -0.171122   
N7       N      0.470980000000     0.035360000000     0.114670000000    -0.170575   
N8       N      0.481680000000     0.484470000000     0.158900000000    -0.170705   
N9       N      0.214490000000     0.127410000000     0.301780000000    -0.167465   
N10      N      0.235250000000     0.186550000000     0.276070000000    -0.18059    
N11      N      0.239490000000     0.439470000000     0.258020000000    -0.166707   
N12      N      0.249370000000     0.372770000000     0.253130000000    -0.18044    
N13      N      0.237560000000     0.185970000000     0.022820000000    -0.17971    
N14      N      0.217210000000     0.126830000000     0.049410000000    -0.166402   
N15      N      0.221660000000     0.436000000000     0.500530000000    -0.165873   
N16      N      0.238030000000     0.371010000000     0.511270000000    -0.179078   
N17      N      0.239630000000     0.272650000000     0.427660000000    -0.222202   
N18      N      0.246920000000     0.287690000000     0.353560000000    -0.222646   
N19      N      0.237390000000     0.271000000000     0.177550000000    -0.225173   
N20      N      0.247180000000     0.284970000000     0.103840000000    -0.226524   
N21      N      0.987820000000     0.164230000000     0.259750000000    -0.179055   
N22      N      0.494980000000     0.100800000000     0.236120000000    -0.16606    
N23      N      0.487350000000     0.352060000000     0.267460000000    -0.178782   
N24      N      0.467480000000     0.413860000000     0.286940000000    -0.16691    
N25      N      0.399120000000     0.254640000000     0.263080000000    -0.178968   
N26      N      0.335590000000     0.276870000000     0.261960000000    -0.180245   
N27      N      0.148380000000     0.286700000000     0.268580000000    -0.18008    
N28      N      0.086680000000     0.259900000000     0.266440000000    -0.179931   
N29      N      0.988810000000     0.174990000000     0.013360000000    -0.180865   
N30      N      0.470630000000     0.113490000000     0.991660000000    -0.166101   
N31      N      0.510060000000     0.424500000000     0.527220000000    -0.167185   
N32      N      0.516670000000     0.357200000000     0.526660000000    -0.18149    
N33      N      0.404200000000     0.286720000000     0.510810000000    -0.180063   
N34      N      0.336330000000     0.271430000000     0.013570000000    -0.180798   
N35      N      0.150620000000     0.273330000000     0.519890000000    -0.179525   
N36      N      0.087890000000     0.260070000000     0.017050000000    -0.180714   
N37      N      0.990520000000     0.255340000000     0.352760000000    -0.221898   
N38      N      0.501210000000     0.271940000000     0.426210000000    -0.222317   
N39      N      0.496450000000     0.258450000000     0.176080000000    -0.224837   
N40      N      0.989830000000     0.271190000000     0.101870000000    -0.223353   
N41      N      0.226820000000     0.008030000000     0.877920000000    -0.171211   
N42      N      0.218920000000     0.556080000000     0.925760000000    -0.170941   
N43      N      0.225250000000     0.007510000000     0.627660000000    -0.170607   
N44      N      0.233480000000     0.554580000000     0.676870000000    -0.170654   
N45      N      0.478320000000     0.493570000000     0.912810000000    -0.170449   
N46      N      0.496700000000     0.032620000000     0.859290000000    -0.170668   
N47      N      0.502490000000     0.034970000000     0.613240000000    -0.170559   
N48      N      0.512800000000     0.484870000000     0.659110000000    -0.170392   
N49      N      0.217990000000     0.124750000000     0.802460000000    -0.16735    
N50      N      0.238110000000     0.184180000000     0.776820000000    -0.180352   
N51      N      0.243240000000     0.436780000000     0.758450000000    -0.166629   
N52      N      0.253410000000     0.370210000000     0.752610000000    -0.180559   
N53      N      0.242350000000     0.183290000000     0.521750000000    -0.179462   
N54      N      0.220540000000     0.125230000000     0.549890000000    -0.16635    
N55      N      0.223330000000     0.437920000000     0.999030000000    -0.165494   
N56      N      0.241030000000     0.373490000000     0.011130000000    -0.17926    
N57      N      0.239490000000     0.274360000000     0.927870000000    -0.222183   
N58      N      0.250030000000     0.286070000000     0.853590000000    -0.222771   
N59      N      0.240220000000     0.268180000000     0.677660000000    -0.224307   
N60      N      0.248450000000     0.282470000000     0.603730000000    -0.225003   
N61      N      0.999180000000     0.158880000000     0.761800000000    -0.179769   
N62      N      0.520420000000     0.099390000000     0.737180000000    -0.167063   
N63      N      0.498780000000     0.346910000000     0.767290000000    -0.179248   
N64      N      0.490360000000     0.412020000000     0.784060000000    -0.166514   
N65      N      0.402730000000     0.250470000000     0.762690000000    -0.179052   
N66      N      0.338870000000     0.272470000000     0.762140000000    -0.17933    
N67      N      0.151560000000     0.283950000000     0.769090000000    -0.180074   
N68      N      0.090510000000     0.255690000000     0.767170000000    -0.178809   
N69      N      0.984430000000     0.173560000000     0.506330000000    -0.181487   
N70      N      0.470090000000     0.110400000000     0.488010000000    -0.167708   
N71      N      0.475490000000     0.423060000000     0.034210000000    -0.166345   
N72      N      0.498310000000     0.362620000000     0.013680000000    -0.179841   
N73      N      0.402650000000     0.281490000000     0.009580000000    -0.180352   
N74      N      0.337780000000     0.275020000000     0.512480000000    -0.179223   
N75      N      0.150180000000     0.284310000000     0.019510000000    -0.180606   
N76      N      0.087870000000     0.249260000000     0.519050000000    -0.179856   
N77      N      0.992700000000     0.250880000000     0.852780000000    -0.223871   
N78      N      0.499900000000     0.269200000000     0.925730000000    -0.226      
N79      N      0.500360000000     0.252340000000     0.676970000000    -0.224439   
N80      N      0.989800000000     0.263020000000     0.603020000000    -0.227041   
N81      N      0.223740000000     0.509420000000     0.376820000000    -0.171168   
N82      N      0.218380000000     0.055510000000     0.427140000000    -0.17097    
N83      N      0.223410000000     0.509450000000     0.126690000000    -0.170489   
N84      N      0.229870000000     0.056850000000     0.175880000000    -0.170661   
N85      N      0.481070000000     0.993190000000     0.412480000000    -0.17145    
N86      N      0.479140000000     0.535720000000     0.358470000000    -0.171168   
N87      N      0.470980000000     0.535360000000     0.114670000000    -0.170608   
N88      N      0.481680000000     0.984470000000     0.158900000000    -0.170734   
N89      N      0.214490000000     0.627410000000     0.301780000000    -0.167466   
N90      N      0.235250000000     0.686550000000     0.276070000000    -0.180592   
N91      N      0.239490000000     0.939470000000     0.258020000000    -0.166685   
N92      N      0.249370000000     0.872770000000     0.253130000000    -0.180461   
N93      N      0.237560000000     0.685970000000     0.022820000000    -0.179693   
N94      N      0.217210000000     0.626830000000     0.049410000000    -0.166416   
N95      N      0.221660000000     0.936000000000     0.500530000000    -0.165868   
N96      N      0.238030000000     0.871010000000     0.511270000000    -0.179071   
N97      N      0.239630000000     0.772650000000     0.427660000000    -0.222202   
N98      N      0.246920000000     0.787690000000     0.353560000000    -0.22266    
N99      N      0.237390000000     0.771000000000     0.177550000000    -0.225157   
N100     N      0.247180000000     0.784970000000     0.103840000000    -0.226521   
N101     N      0.987820000000     0.664230000000     0.259750000000    -0.179066   
N102     N      0.494980000000     0.600800000000     0.236120000000    -0.166067   
N103     N      0.487350000000     0.852060000000     0.267460000000    -0.178778   
N104     N      0.467490000000     0.913860000000     0.286940000000    -0.166902   
N105     N      0.399110000000     0.754640000000     0.263080000000    -0.178883   
N106     N      0.335590000000     0.776870000000     0.261960000000    -0.180254   
N107     N      0.148380000000     0.786700000000     0.268580000000    -0.180072   
N108     N      0.086680000000     0.759900000000     0.266440000000    -0.179931   
N109     N      0.988810000000     0.674990000000     0.013360000000    -0.180869   
N110     N      0.470630000000     0.613490000000     0.991660000000    -0.166098   
N111     N      0.510060000000     0.924500000000     0.527220000000    -0.167147   
N112     N      0.516670000000     0.857200000000     0.526660000000    -0.181487   
N113     N      0.404200000000     0.786720000000     0.510810000000    -0.179998   
N114     N      0.336330000000     0.771430000000     0.013570000000    -0.180799   
N115     N      0.150620000000     0.773330000000     0.519890000000    -0.179522   
N116     N      0.087890000000     0.760070000000     0.017050000000    -0.18073    
N117     N      0.990520000000     0.755340000000     0.352760000000    -0.221899   
N118     N      0.501210000000     0.771940000000     0.426210000000    -0.222298   
N119     N      0.496450000000     0.758450000000     0.176080000000    -0.224843   
N120     N      0.989830000000     0.771190000000     0.101870000000    -0.223342   
N121     N      0.226820000000     0.508030000000     0.877920000000    -0.171207   
N122     N      0.218920000000     0.056080000000     0.925760000000    -0.170948   
N123     N      0.225250000000     0.507510000000     0.627660000000    -0.170603   
N124     N      0.233480000000     0.054580000000     0.676870000000    -0.170708   
N125     N      0.478320000000     0.993570000000     0.912810000000    -0.170239   
N126     N      0.496700000000     0.532620000000     0.859290000000    -0.170644   
N127     N      0.502490000000     0.534960000000     0.613240000000    -0.170652   
N128     N      0.512800000000     0.984870000000     0.659110000000    -0.170408   
N129     N      0.217990000000     0.624750000000     0.802460000000    -0.167349   
N130     N      0.238110000000     0.684180000000     0.776820000000    -0.180339   
N131     N      0.243240000000     0.936780000000     0.758450000000    -0.166612   
N132     N      0.253410000000     0.870210000000     0.752610000000    -0.180558   
N133     N      0.242350000000     0.683290000000     0.521750000000    -0.179459   
N134     N      0.220540000000     0.625230000000     0.549890000000    -0.166306   
N135     N      0.223330000000     0.937920000000     0.999030000000    -0.165488   
N136     N      0.241030000000     0.873490000000     0.011130000000    -0.17926    
N137     N      0.239490000000     0.774360000000     0.927870000000    -0.222177   
N138     N      0.250030000000     0.786070000000     0.853590000000    -0.222779   
N139     N      0.240220000000     0.768180000000     0.677660000000    -0.224312   
N140     N      0.248450000000     0.782470000000     0.603730000000    -0.224966   
N141     N      0.999180000000     0.658880000000     0.761800000000    -0.179756   
N142     N      0.520420000000     0.599390000000     0.737180000000    -0.167068   
N143     N      0.498780000000     0.846910000000     0.767290000000    -0.179265   
N144     N      0.490360000000     0.912020000000     0.784060000000    -0.166498   
N145     N      0.402730000000     0.750470000000     0.762690000000    -0.179056   
N146     N      0.338870000000     0.772470000000     0.762140000000    -0.179327   
N147     N      0.151560000000     0.783950000000     0.769090000000    -0.180075   
N148     N      0.090510000000     0.755690000000     0.767170000000    -0.178802   
N149     N      0.984430000000     0.673560000000     0.506330000000    -0.181486   
N150     N      0.470090000000     0.610390000000     0.488010000000    -0.167792   
N151     N      0.475480000000     0.923060000000     0.034210000000    -0.166336   
N152     N      0.498310000000     0.862620000000     0.013680000000    -0.179834   
N153     N      0.402650000000     0.781490000000     0.009580000000    -0.180354   
N154     N      0.337780000000     0.775020000000     0.512480000000    -0.179228   
N155     N      0.150180000000     0.784310000000     0.019510000000    -0.180603   
N156     N      0.087870000000     0.749260000000     0.519050000000    -0.179867   
N157     N      0.992700000000     0.750880000000     0.852780000000    -0.223854   
N158     N      0.499900000000     0.769200000000     0.925730000000    -0.22602    
N159     N      0.500360000000     0.752340000000     0.676970000000    -0.224452   
N160     N      0.989800000000     0.763020000000     0.603020000000    -0.227057   
N161     N      0.723740000000     0.009420000000     0.376820000000    -0.171172   
N162     N      0.718370000000     0.555510000000     0.427140000000    -0.171011   
N163     N      0.723400000000     0.009450000000     0.126690000000    -0.170491   
N164     N      0.729870000000     0.556850000000     0.175880000000    -0.170663   
N165     N      0.981070000000     0.493190000000     0.412480000000    -0.171565   
N166     N      0.979140000000     0.035720000000     0.358470000000    -0.171177   
N167     N      0.970980000000     0.035360000000     0.114670000000    -0.170676   
N168     N      0.981670000000     0.484470000000     0.158900000000    -0.170764   
N169     N      0.714490000000     0.127410000000     0.301780000000    -0.167464   
N170     N      0.735250000000     0.186550000000     0.276070000000    -0.180591   
N171     N      0.739490000000     0.439470000000     0.258020000000    -0.166707   
N172     N      0.749370000000     0.372770000000     0.253130000000    -0.180442   
N173     N      0.737560000000     0.185970000000     0.022820000000    -0.17969    
N174     N      0.717210000000     0.126830000000     0.049410000000    -0.166415   
N175     N      0.721660000000     0.436000000000     0.500530000000    -0.165885   
N176     N      0.738030000000     0.371010000000     0.511270000000    -0.179075   
N177     N      0.739630000000     0.272650000000     0.427660000000    -0.222201   
N178     N      0.746920000000     0.287690000000     0.353560000000    -0.222661   
N179     N      0.737390000000     0.271000000000     0.177550000000    -0.225174   
N180     N      0.747180000000     0.284970000000     0.103840000000    -0.226521   
N181     N      0.487820000000     0.164230000000     0.259750000000    -0.178953   
N182     N      0.994980000000     0.100800000000     0.236120000000    -0.166087   
N183     N      0.987350000000     0.352060000000     0.267460000000    -0.178881   
N184     N      0.967480000000     0.413860000000     0.286940000000    -0.166839   
N185     N      0.899110000000     0.254640000000     0.263080000000    -0.178875   
N186     N      0.835590000000     0.276870000000     0.261960000000    -0.180322   
N187     N      0.648380000000     0.286700000000     0.268580000000    -0.180073   
N188     N      0.586680000000     0.259900000000     0.266440000000    -0.179943   
N189     N      0.488810000000     0.174990000000     0.013360000000    -0.18076    
N190     N      0.970630000000     0.113490000000     0.991660000000    -0.166065   
N191     N      0.010060000000     0.424500000000     0.527220000000    -0.167091   
N192     N      0.016670000000     0.357200000000     0.526660000000    -0.181503   
N193     N      0.904200000000     0.286720000000     0.510810000000    -0.180066   
N194     N      0.836330000000     0.271430000000     0.013570000000    -0.180796   
N195     N      0.650620000000     0.273330000000     0.519890000000    -0.179524   
N196     N      0.587890000000     0.260070000000     0.017050000000    -0.180726   
N197     N      0.490520000000     0.255340000000     0.352760000000    -0.221841   
N198     N      0.001210000000     0.271940000000     0.426210000000    -0.222131   
N199     N      0.996450000000     0.258450000000     0.176080000000    -0.224933   
N200     N      0.489830000000     0.271190000000     0.101870000000    -0.223308   
N201     N      0.726820000000     0.008030000000     0.877920000000    -0.171209   
N202     N      0.718920000000     0.556080000000     0.925760000000    -0.17094    
N203     N      0.725250000000     0.007510000000     0.627660000000    -0.170554   
N204     N      0.733480000000     0.554580000000     0.676870000000    -0.170719   
N205     N      0.978320000000     0.493570000000     0.912810000000    -0.170498   
N206     N      0.996700000000     0.032620000000     0.859290000000    -0.170873   
N207     N      0.002490000000     0.034970000000     0.613240000000    -0.170407   
N208     N      0.012800000000     0.484870000000     0.659110000000    -0.170342   
N209     N      0.717990000000     0.124750000000     0.802460000000    -0.167349   
N210     N      0.738100000000     0.184180000000     0.776820000000    -0.180343   
N211     N      0.743240000000     0.436780000000     0.758450000000    -0.16663    
N212     N      0.753410000000     0.370210000000     0.752610000000    -0.180559   
N213     N      0.742350000000     0.183290000000     0.521750000000    -0.179474   
N214     N      0.720530000000     0.125230000000     0.549890000000    -0.166301   
N215     N      0.723330000000     0.437920000000     0.999030000000    -0.165494   
N216     N      0.741030000000     0.373490000000     0.011130000000    -0.179259   
N217     N      0.739490000000     0.274360000000     0.927870000000    -0.222181   
N218     N      0.750030000000     0.286070000000     0.853590000000    -0.22275    
N219     N      0.740230000000     0.268180000000     0.677660000000    -0.22435    
N220     N      0.748450000000     0.282470000000     0.603730000000    -0.224984   
N221     N      0.499180000000     0.158880000000     0.761800000000    -0.179696   
N222     N      0.020420000000     0.099390000000     0.737180000000    -0.167031   
N223     N      0.998780000000     0.346910000000     0.767290000000    -0.179295   
N224     N      0.990360000000     0.412020000000     0.784060000000    -0.166587   
N225     N      0.902730000000     0.250470000000     0.762690000000    -0.179043   
N226     N      0.838870000000     0.272470000000     0.762140000000    -0.179334   
N227     N      0.651560000000     0.283950000000     0.769090000000    -0.180069   
N228     N      0.590510000000     0.255690000000     0.767170000000    -0.178818   
N229     N      0.484430000000     0.173560000000     0.506330000000    -0.181392   
N230     N      0.970090000000     0.110400000000     0.488010000000    -0.167649   
N231     N      0.975480000000     0.423060000000     0.034210000000    -0.166283   
N232     N      0.998310000000     0.362620000000     0.013680000000    -0.179917   
N233     N      0.902650000000     0.281490000000     0.009580000000    -0.180346   
N234     N      0.837780000000     0.275020000000     0.512480000000    -0.179224   
N235     N      0.650180000000     0.284310000000     0.019510000000    -0.180676   
N236     N      0.587870000000     0.249260000000     0.519050000000    -0.179883   
N237     N      0.492700000000     0.250880000000     0.852780000000    -0.223841   
N238     N      0.999900000000     0.269200000000     0.925730000000    -0.226072   
N239     N      0.000360000000     0.252340000000     0.676970000000    -0.224308   
N240     N      0.489800000000     0.263020000000     0.603020000000    -0.227027   
N241     N      0.723740000000     0.509420000000     0.376820000000    -0.171167   
N242     N      0.718380000000     0.055510000000     0.427140000000    -0.170969   
N243     N      0.723410000000     0.509450000000     0.126690000000    -0.170487   
N244     N      0.729870000000     0.056850000000     0.175880000000    -0.170661   
N245     N      0.981070000000     0.993190000000     0.412480000000    -0.171485   
N246     N      0.979140000000     0.535720000000     0.358470000000    -0.171213   
N247     N      0.970980000000     0.535360000000     0.114670000000    -0.170703   
N248     N      0.981680000000     0.984470000000     0.158900000000    -0.170777   
N249     N      0.714500000000     0.627410000000     0.301780000000    -0.167486   
N250     N      0.735250000000     0.686550000000     0.276070000000    -0.180591   
N251     N      0.739490000000     0.939470000000     0.258020000000    -0.166682   
N252     N      0.749370000000     0.872770000000     0.253130000000    -0.180468   
N253     N      0.737560000000     0.685970000000     0.022820000000    -0.179709   
N254     N      0.717220000000     0.626830000000     0.049410000000    -0.166416   
N255     N      0.721670000000     0.936000000000     0.500530000000    -0.165899   
N256     N      0.738030000000     0.871010000000     0.511270000000    -0.179076   
N257     N      0.739630000000     0.772650000000     0.427660000000    -0.222201   
N258     N      0.746920000000     0.787690000000     0.353560000000    -0.222662   
N259     N      0.737390000000     0.771000000000     0.177550000000    -0.225174   
N260     N      0.747180000000     0.784970000000     0.103840000000    -0.226515   
N261     N      0.487820000000     0.664230000000     0.259750000000    -0.17895    
N262     N      0.994980000000     0.600800000000     0.236120000000    -0.166101   
N263     N      0.987350000000     0.852060000000     0.267460000000    -0.178886   
N264     N      0.967480000000     0.913860000000     0.286940000000    -0.166822   
N265     N      0.899110000000     0.754640000000     0.263080000000    -0.178878   
N266     N      0.835590000000     0.776870000000     0.261960000000    -0.180246   
N267     N      0.648380000000     0.786700000000     0.268580000000    -0.180071   
N268     N      0.586680000000     0.759900000000     0.266440000000    -0.179941   
N269     N      0.488810000000     0.674990000000     0.013360000000    -0.18077    
N270     N      0.970630000000     0.613490000000     0.991660000000    -0.166063   
N271     N      0.010060000000     0.924500000000     0.527220000000    -0.167099   
N272     N      0.016670000000     0.857200000000     0.526660000000    -0.181501   
N273     N      0.904200000000     0.786720000000     0.510810000000    -0.180057   
N274     N      0.836330000000     0.771430000000     0.013570000000    -0.180798   
N275     N      0.650620000000     0.773330000000     0.519890000000    -0.179526   
N276     N      0.587880000000     0.760070000000     0.017050000000    -0.180824   
N277     N      0.490530000000     0.755340000000     0.352760000000    -0.221837   
N278     N      0.001210000000     0.771940000000     0.426210000000    -0.222128   
N279     N      0.996450000000     0.758450000000     0.176080000000    -0.22494    
N280     N      0.489830000000     0.771190000000     0.101870000000    -0.223316   
N281     N      0.726820000000     0.508030000000     0.877920000000    -0.171255   
N282     N      0.718920000000     0.056080000000     0.925760000000    -0.170948   
N283     N      0.725250000000     0.507510000000     0.627660000000    -0.170605   
N284     N      0.733480000000     0.054580000000     0.676870000000    -0.170662   
N285     N      0.978320000000     0.993570000000     0.912810000000    -0.170287   
N286     N      0.996700000000     0.532620000000     0.859290000000    -0.170848   
N287     N      0.002490000000     0.534960000000     0.613240000000    -0.170446   
N288     N      0.012800000000     0.984870000000     0.659110000000    -0.170356   
N289     N      0.717990000000     0.624750000000     0.802460000000    -0.167349   
N290     N      0.738110000000     0.684180000000     0.776820000000    -0.180352   
N291     N      0.743240000000     0.936780000000     0.758450000000    -0.166611   
N292     N      0.753410000000     0.870210000000     0.752610000000    -0.180556   
N293     N      0.742350000000     0.683290000000     0.521750000000    -0.179483   
N294     N      0.720540000000     0.625230000000     0.549890000000    -0.166345   
N295     N      0.723330000000     0.937920000000     0.999030000000    -0.165483   
N296     N      0.741030000000     0.873490000000     0.011130000000    -0.17926    
N297     N      0.739490000000     0.774360000000     0.927870000000    -0.2222     
N298     N      0.750030000000     0.786070000000     0.853590000000    -0.222754   
N299     N      0.740220000000     0.768180000000     0.677660000000    -0.224308   
N300     N      0.748450000000     0.782470000000     0.603730000000    -0.225002   
N301     N      0.499180000000     0.658880000000     0.761800000000    -0.179707   
N302     N      0.020420000000     0.599390000000     0.737180000000    -0.167027   
N303     N      0.998780000000     0.846910000000     0.767290000000    -0.179299   
N304     N      0.990360000000     0.912020000000     0.784060000000    -0.166527   
N305     N      0.902740000000     0.750470000000     0.762690000000    -0.179128   
N306     N      0.838870000000     0.772470000000     0.762140000000    -0.179328   
N307     N      0.651560000000     0.783950000000     0.769090000000    -0.180083   
N308     N      0.590510000000     0.755690000000     0.767170000000    -0.178811   
N309     N      0.484430000000     0.673560000000     0.506330000000    -0.181383   
N310     N      0.970100000000     0.610390000000     0.488010000000    -0.16774    
N311     N      0.975480000000     0.923060000000     0.034210000000    -0.166275   
N312     N      0.998310000000     0.862620000000     0.013680000000    -0.179903   
N313     N      0.902650000000     0.781490000000     0.009580000000    -0.180346   
N314     N      0.837780000000     0.775020000000     0.512480000000    -0.179222   
N315     N      0.650180000000     0.784310000000     0.019510000000    -0.180601   
N316     N      0.587870000000     0.749260000000     0.519050000000    -0.179874   
N317     N      0.492700000000     0.750880000000     0.852780000000    -0.223788   
N318     N      0.999900000000     0.769200000000     0.925730000000    -0.226093   
N319     N      0.000360000000     0.752340000000     0.676970000000    -0.224321   
N320     N      0.489800000000     0.763020000000     0.603020000000    -0.227011   
O1       O      0.503550000000     0.314390000000     0.042070000000    -0.473608   
O2       O      0.985520000000     0.223360000000     0.041990000000    -0.476889   
O3       O      0.039330000000     0.260890000000     0.045070000000    -0.481486   
O4       O      0.449860000000     0.278160000000     0.039540000000    -0.483788   
O5       O      0.452560000000     0.277120000000     0.484070000000    -0.48711    
O6       O      0.042330000000     0.260590000000     0.488570000000    -0.479779   
O7       O      0.994210000000     0.223130000000     0.483150000000    -0.4888     
O8       O      0.510070000000     0.313330000000     0.490510000000    -0.474116   
O9       O      0.495860000000     0.303160000000     0.293380000000    -0.477576   
O10      O      0.997010000000     0.210650000000     0.290670000000    -0.469172   
O11      O      0.038960000000     0.257430000000     0.295420000000    -0.484069   
O12      O      0.447560000000     0.256150000000     0.291440000000    -0.479374   
O13      O      0.446630000000     0.258010000000     0.233630000000    -0.473017   
O14      O      0.038200000000     0.259960000000     0.237830000000    -0.485295   
O15      O      0.986520000000     0.213600000000     0.234010000000    -0.480399   
O16      O      0.485510000000     0.304870000000     0.236530000000    -0.47758    
O17      O      0.239490000000     0.326260000000     0.041500000000    -0.484456   
O18      O      0.247030000000     0.234960000000     0.047440000000    -0.486817   
O19      O      0.289640000000     0.282320000000     0.042520000000    -0.488375   
O20      O      0.198620000000     0.277870000000     0.046640000000    -0.484979   
O21      O      0.197750000000     0.278660000000     0.489830000000    -0.479118   
O22      O      0.288940000000     0.272450000000     0.485130000000    -0.481543   
O23      O      0.238620000000     0.230170000000     0.490510000000    -0.47088    
O24      O      0.246840000000     0.322400000000     0.484630000000    -0.476811   
O25      O      0.249410000000     0.327950000000     0.288140000000    -0.474272   
O26      O      0.245060000000     0.236560000000     0.298350000000    -0.486022   
O27      O      0.288870000000     0.280630000000     0.292510000000    -0.483323   
O28      O      0.197480000000     0.284560000000     0.295860000000    -0.483358   
O29      O      0.195110000000     0.281920000000     0.238230000000    -0.483648   
O30      O      0.286240000000     0.274720000000     0.235240000000    -0.48613    
O31      O      0.232930000000     0.231840000000     0.242240000000    -0.483225   
O32      O      0.240290000000     0.322580000000     0.231380000000    -0.489094   
O33      O      0.027310000000     0.476060000000     0.517710000000    -0.403173   
O34      O      0.998560000000     0.065910000000     0.997290000000    -0.398099   
O35      O      0.998050000000     0.034410000000     0.063290000000    -0.413977   
O36      O      0.011430000000     0.509700000000     0.458100000000    -0.418347   
O37      O      0.459180000000     0.500630000000     0.466560000000    -0.410397   
O38      O      0.445070000000     0.026520000000     0.063120000000    -0.410316   
O39      O      0.445200000000     0.065680000000     0.003030000000    -0.402396   
O40      O      0.475360000000     0.467060000000     0.528920000000    -0.405081   
O41      O      0.000240000000     0.457340000000     0.277570000000    -0.402175   
O42      O      0.014050000000     0.050010000000     0.247020000000    -0.404055   
O43      O      0.005800000000     0.018930000000     0.310190000000    -0.417558   
O44      O      0.007680000000     0.489190000000     0.211140000000    -0.409638   
O45      O      0.454480000000     0.495240000000     0.208650000000    -0.416278   
O46      O      0.452660000000     0.025370000000     0.307500000000    -0.410078   
O47      O      0.461080000000     0.057140000000     0.242080000000    -0.396601   
O48      O      0.447140000000     0.463480000000     0.272180000000    -0.39796    
O49      O      0.248010000000     0.484370000000     0.507850000000    -0.396685   
O50      O      0.245430000000     0.079440000000     0.043740000000    -0.397918   
O51      O      0.248760000000     0.016480000000     0.074620000000    -0.410506   
O52      O      0.245820000000     0.547580000000     0.477630000000    -0.413484   
O53      O      0.192570000000     0.541730000000     0.477430000000    -0.412466   
O54      O      0.195330000000     0.019570000000     0.076900000000    -0.412861   
O55      O      0.192110000000     0.078900000000     0.037570000000    -0.402398   
O56      O      0.195020000000     0.482090000000     0.516430000000    -0.401663   
O57      O      0.260050000000     0.489950000000     0.266440000000    -0.403501   
O58      O      0.247270000000     0.083710000000     0.293490000000    -0.40258    
O59      O      0.251900000000     0.023340000000     0.328430000000    -0.415558   
O60      O      0.255420000000     0.550110000000     0.228240000000    -0.408876   
O61      O      0.202140000000     0.545150000000     0.225100000000    -0.41719    
O62      O      0.198870000000     0.016590000000     0.324340000000    -0.411946   
O63      O      0.194150000000     0.077700000000     0.288090000000    -0.402331   
O64      O      0.207060000000     0.484040000000     0.259590000000    -0.401687   
O65      O      0.500950000000     0.308410000000     0.547140000000    -0.499247   
O66      O      0.982750000000     0.219240000000     0.539580000000    -0.488662   
O67      O      0.038890000000     0.254910000000     0.545990000000    -0.482196   
O68      O      0.449350000000     0.274120000000     0.541610000000    -0.485242   
O69      O      0.450000000000     0.268370000000     0.982770000000    -0.483855   
O70      O      0.040990000000     0.268920000000     0.987960000000    -0.48838    
O71      O      0.997060000000     0.222660000000     0.985450000000    -0.488219   
O72      O      0.493380000000     0.314470000000     0.985320000000    -0.481136   
O73      O      0.502250000000     0.297900000000     0.794030000000    -0.47966    
O74      O      0.002870000000     0.206120000000     0.792540000000    -0.473741   
O75      O      0.042730000000     0.252530000000     0.796090000000    -0.47579    
O76      O      0.451260000000     0.251570000000     0.791000000000    -0.484134   
O77      O      0.450410000000     0.252800000000     0.733310000000    -0.4776     
O78      O      0.042110000000     0.255080000000     0.738400000000    -0.479056   
O79      O      0.992850000000     0.207870000000     0.735830000000    -0.482867   
O80      O      0.491240000000     0.299750000000     0.737360000000    -0.475583   
O81      O      0.237880000000     0.323620000000     0.541650000000    -0.48123    
O82      O      0.249830000000     0.232420000000     0.547090000000    -0.481491   
O83      O      0.290470000000     0.281650000000     0.541960000000    -0.48389    
O84      O      0.199540000000     0.272420000000     0.547150000000    -0.480049   
O85      O      0.197480000000     0.284850000000     0.989380000000    -0.480365   
O86      O      0.287620000000     0.271320000000     0.986100000000    -0.485445   
O87      O      0.234530000000     0.232800000000     0.991220000000    -0.469145   
O88      O      0.248970000000     0.324530000000     0.984590000000    -0.472335   
O89      O      0.253240000000     0.325510000000     0.787760000000    -0.475957   
O90      O      0.247980000000     0.234300000000     0.798760000000    -0.484318   
O91      O      0.292210000000     0.277300000000     0.792790000000    -0.479994   
O92      O      0.200770000000     0.282290000000     0.796190000000    -0.483355   
O93      O      0.198230000000     0.279330000000     0.738600000000    -0.482861   
O94      O      0.289410000000     0.271540000000     0.735460000000    -0.483198   
O95      O      0.235860000000     0.229280000000     0.742660000000    -0.480916   
O96      O      0.243720000000     0.320010000000     0.731110000000    -0.488559   
O97      O      0.000670000000     0.472360000000     0.031040000000    -0.397955   
O98      O      0.006410000000     0.069260000000     0.494380000000    -0.402396   
O99      O      0.023150000000     0.034980000000     0.557860000000    -0.408201   
O100     O      0.001760000000     0.503280000000     0.965190000000    -0.414417   
O101     O      0.448570000000     0.507990000000     0.960460000000    -0.407618   
O102     O      0.470880000000     0.026120000000     0.566130000000    -0.417963   
O103     O      0.454490000000     0.060050000000     0.505370000000    -0.404721   
O104     O      0.447980000000     0.469220000000     0.020750000000    -0.401852   
O105     O      0.024540000000     0.455090000000     0.777070000000    -0.396894   
O106     O      0.039750000000     0.049550000000     0.752420000000    -0.399617   
O107     O      0.027530000000     0.015120000000     0.813930000000    -0.409207   
O108     O      0.036990000000     0.490280000000     0.712770000000    -0.402219   
O109     O      0.483740000000     0.493370000000     0.707920000000    -0.421952   
O110     O      0.475370000000     0.024550000000     0.805330000000    -0.414729   
O111     O      0.487560000000     0.055120000000     0.740350000000    -0.403567   
O112     O      0.471730000000     0.462500000000     0.770620000000    -0.403151   
O113     O      0.248610000000     0.486790000000     0.007110000000    -0.396815   
O114     O      0.247600000000     0.077160000000     0.544250000000    -0.397552   
O115     O      0.250010000000     0.014140000000     0.575190000000    -0.410607   
O116     O      0.245540000000     0.549950000000     0.977040000000    -0.413287   
O117     O      0.192460000000     0.542850000000     0.975810000000    -0.4119     
O118     O      0.196700000000     0.018360000000     0.578410000000    -0.413241   
O119     O      0.194190000000     0.077770000000     0.539100000000    -0.402168   
O120     O      0.195570000000     0.483360000000     0.014730000000    -0.402462   
O121     O      0.263740000000     0.487220000000     0.767480000000    -0.40312    
O122     O      0.250860000000     0.081090000000     0.794230000000    -0.402027   
O123     O      0.255410000000     0.020870000000     0.829460000000    -0.41507    
O124     O      0.259190000000     0.547320000000     0.729090000000    -0.408285   
O125     O      0.205880000000     0.542630000000     0.726040000000    -0.418087   
O126     O      0.202450000000     0.013790000000     0.825030000000    -0.412952   
O127     O      0.197740000000     0.074940000000     0.788990000000    -0.402052   
O128     O      0.210800000000     0.481360000000     0.760210000000    -0.401774   
O129     O      0.503550000000     0.814390000000     0.042070000000    -0.473505   
O130     O      0.985520000000     0.723360000000     0.041990000000    -0.476988   
O131     O      0.039330000000     0.760890000000     0.045070000000    -0.481527   
O132     O      0.449860000000     0.778160000000     0.039540000000    -0.483793   
O133     O      0.452560000000     0.777120000000     0.484070000000    -0.487224   
O134     O      0.042330000000     0.760590000000     0.488570000000    -0.47992    
O135     O      0.994210000000     0.723130000000     0.483150000000    -0.488768   
O136     O      0.510080000000     0.813340000000     0.490510000000    -0.473996   
O137     O      0.495860000000     0.803160000000     0.293380000000    -0.477569   
O138     O      0.997010000000     0.710650000000     0.290670000000    -0.469187   
O139     O      0.038960000000     0.757430000000     0.295420000000    -0.484067   
O140     O      0.447560000000     0.756150000000     0.291440000000    -0.47936    
O141     O      0.446630000000     0.758010000000     0.233630000000    -0.473006   
O142     O      0.038200000000     0.759960000000     0.237830000000    -0.485291   
O143     O      0.986530000000     0.713600000000     0.234010000000    -0.480458   
O144     O      0.485510000000     0.804870000000     0.236530000000    -0.477586   
O145     O      0.239490000000     0.826260000000     0.041500000000    -0.484452   
O146     O      0.247040000000     0.734960000000     0.047440000000    -0.48673    
O147     O      0.289640000000     0.782320000000     0.042520000000    -0.48836    
O148     O      0.198620000000     0.777870000000     0.046640000000    -0.484987   
O149     O      0.197750000000     0.778660000000     0.489830000000    -0.479114   
O150     O      0.288940000000     0.772450000000     0.485130000000    -0.481573   
O151     O      0.238620000000     0.730170000000     0.490510000000    -0.470879   
O152     O      0.246840000000     0.822400000000     0.484630000000    -0.47681    
O153     O      0.249410000000     0.827950000000     0.288140000000    -0.474297   
O154     O      0.245060000000     0.736560000000     0.298350000000    -0.486037   
O155     O      0.288870000000     0.780630000000     0.292510000000    -0.483477   
O156     O      0.197480000000     0.784560000000     0.295860000000    -0.483232   
O157     O      0.195110000000     0.781920000000     0.238230000000    -0.483632   
O158     O      0.286240000000     0.774720000000     0.235240000000    -0.486151   
O159     O      0.232930000000     0.731840000000     0.242240000000    -0.483228   
O160     O      0.240290000000     0.822580000000     0.231380000000    -0.489099   
O161     O      0.027310000000     0.976060000000     0.517710000000    -0.403028   
O162     O      0.998560000000     0.565910000000     0.997290000000    -0.398122   
O163     O      0.998050000000     0.534410000000     0.063290000000    -0.413971   
O164     O      0.011430000000     0.009700000000     0.458100000000    -0.418357   
O165     O      0.459180000000     0.000630000000     0.466560000000    -0.410415   
O166     O      0.445070000000     0.526520000000     0.063120000000    -0.410303   
O167     O      0.445200000000     0.565680000000     0.003030000000    -0.402423   
O168     O      0.475360000000     0.967060000000     0.528920000000    -0.404937   
O169     O      0.000240000000     0.957340000000     0.277570000000    -0.402034   
O170     O      0.014050000000     0.550010000000     0.247020000000    -0.40416    
O171     O      0.005800000000     0.518930000000     0.310190000000    -0.41757    
O172     O      0.007680000000     0.989190000000     0.211140000000    -0.40948    
O173     O      0.454480000000     0.995240000000     0.208650000000    -0.416097   
O174     O      0.452660000000     0.525370000000     0.307500000000    -0.410108   
O175     O      0.461080000000     0.557140000000     0.242080000000    -0.396643   
O176     O      0.447140000000     0.963480000000     0.272180000000    -0.397815   
O177     O      0.248010000000     0.984370000000     0.507850000000    -0.396545   
O178     O      0.245430000000     0.579440000000     0.043740000000    -0.397966   
O179     O      0.248760000000     0.516480000000     0.074620000000    -0.410523   
O180     O      0.245820000000     0.047590000000     0.477630000000    -0.413457   
O181     O      0.192570000000     0.041730000000     0.477430000000    -0.412488   
O182     O      0.195330000000     0.519570000000     0.076900000000    -0.412879   
O183     O      0.192110000000     0.578900000000     0.037570000000    -0.402428   
O184     O      0.195020000000     0.982090000000     0.516430000000    -0.401525   
O185     O      0.260050000000     0.989950000000     0.266440000000    -0.403349   
O186     O      0.247270000000     0.583710000000     0.293490000000    -0.402608   
O187     O      0.251900000000     0.523340000000     0.328430000000    -0.415586   
O188     O      0.255420000000     0.050110000000     0.228240000000    -0.408871   
O189     O      0.202140000000     0.045140000000     0.225100000000    -0.417191   
O190     O      0.198870000000     0.516590000000     0.324340000000    -0.411942   
O191     O      0.194150000000     0.577700000000     0.288090000000    -0.402346   
O192     O      0.207060000000     0.984040000000     0.259590000000    -0.401533   
O193     O      0.500950000000     0.808410000000     0.547140000000    -0.499252   
O194     O      0.982750000000     0.719240000000     0.539580000000    -0.488682   
O195     O      0.038890000000     0.754910000000     0.545990000000    -0.48225    
O196     O      0.449340000000     0.774120000000     0.541610000000    -0.48526    
O197     O      0.450000000000     0.768370000000     0.982770000000    -0.483881   
O198     O      0.040990000000     0.768910000000     0.987960000000    -0.488447   
O199     O      0.997060000000     0.722670000000     0.985450000000    -0.488296   
O200     O      0.493380000000     0.814470000000     0.985320000000    -0.481167   
O201     O      0.502250000000     0.797910000000     0.794030000000    -0.479582   
O202     O      0.002870000000     0.706120000000     0.792540000000    -0.473694   
O203     O      0.042730000000     0.752530000000     0.796090000000    -0.475771   
O204     O      0.451250000000     0.751570000000     0.791000000000    -0.484032   
O205     O      0.450410000000     0.752800000000     0.733310000000    -0.477652   
O206     O      0.042110000000     0.755080000000     0.738400000000    -0.479056   
O207     O      0.992850000000     0.707870000000     0.735830000000    -0.482889   
O208     O      0.491250000000     0.799750000000     0.737360000000    -0.475679   
O209     O      0.237880000000     0.823620000000     0.541650000000    -0.481206   
O210     O      0.249830000000     0.732420000000     0.547090000000    -0.481471   
O211     O      0.290480000000     0.781650000000     0.541960000000    -0.48382    
O212     O      0.199540000000     0.772420000000     0.547150000000    -0.480017   
O213     O      0.197480000000     0.784850000000     0.989380000000    -0.480383   
O214     O      0.287620000000     0.771320000000     0.986100000000    -0.48546    
O215     O      0.234530000000     0.732810000000     0.991220000000    -0.469186   
O216     O      0.248970000000     0.824530000000     0.984590000000    -0.47236    
O217     O      0.253240000000     0.825510000000     0.787760000000    -0.47595    
O218     O      0.247990000000     0.734300000000     0.798760000000    -0.484262   
O219     O      0.292210000000     0.777300000000     0.792790000000    -0.479977   
O220     O      0.200770000000     0.782290000000     0.796190000000    -0.483364   
O221     O      0.198230000000     0.779330000000     0.738600000000    -0.482863   
O222     O      0.289410000000     0.771540000000     0.735460000000    -0.483193   
O223     O      0.235860000000     0.729280000000     0.742660000000    -0.480894   
O224     O      0.243720000000     0.820010000000     0.731110000000    -0.488557   
O225     O      0.000670000000     0.972360000000     0.031040000000    -0.397817   
O226     O      0.006410000000     0.569260000000     0.494380000000    -0.402453   
O227     O      0.023150000000     0.534980000000     0.557860000000    -0.408196   
O228     O      0.001760000000     0.003280000000     0.965190000000    -0.414429   
O229     O      0.448570000000     0.007990000000     0.960460000000    -0.407595   
O230     O      0.470880000000     0.526120000000     0.566130000000    -0.417904   
O231     O      0.454490000000     0.560050000000     0.505370000000    -0.404769   
O232     O      0.447980000000     0.969220000000     0.020750000000    -0.401704   
O233     O      0.024540000000     0.955090000000     0.777070000000    -0.396699   
O234     O      0.039750000000     0.549550000000     0.752420000000    -0.399615   
O235     O      0.027530000000     0.515120000000     0.813930000000    -0.409262   
O236     O      0.036990000000     0.990280000000     0.712770000000    -0.402066   
O237     O      0.483740000000     0.993370000000     0.707920000000    -0.42179    
O238     O      0.475370000000     0.524560000000     0.805330000000    -0.414731   
O239     O      0.487570000000     0.555110000000     0.740350000000    -0.403705   
O240     O      0.471730000000     0.962500000000     0.770620000000    -0.402984   
O241     O      0.248610000000     0.986780000000     0.007110000000    -0.396655   
O242     O      0.247610000000     0.577160000000     0.544250000000    -0.397442   
O243     O      0.250010000000     0.514140000000     0.575190000000    -0.410596   
O244     O      0.245540000000     0.049950000000     0.977040000000    -0.413279   
O245     O      0.192460000000     0.042850000000     0.975810000000    -0.411918   
O246     O      0.196700000000     0.518360000000     0.578410000000    -0.413226   
O247     O      0.194190000000     0.577770000000     0.539100000000    -0.40214    
O248     O      0.195570000000     0.983360000000     0.014730000000    -0.402352   
O249     O      0.263740000000     0.987220000000     0.767480000000    -0.402974   
O250     O      0.250860000000     0.581090000000     0.794230000000    -0.40205    
O251     O      0.255410000000     0.520870000000     0.829460000000    -0.41505    
O252     O      0.259180000000     0.047320000000     0.729090000000    -0.408452   
O253     O      0.205880000000     0.042630000000     0.726040000000    -0.418147   
O254     O      0.202450000000     0.513790000000     0.825030000000    -0.412933   
O255     O      0.197740000000     0.574940000000     0.788990000000    -0.402076   
O256     O      0.210800000000     0.981360000000     0.760210000000    -0.401626   
O257     O      0.003550000000     0.314390000000     0.042070000000    -0.47332    
O258     O      0.485520000000     0.223360000000     0.041990000000    -0.476915   
O259     O      0.539330000000     0.260890000000     0.045070000000    -0.481627   
O260     O      0.949860000000     0.278160000000     0.039540000000    -0.48374    
O261     O      0.952560000000     0.277120000000     0.484070000000    -0.487214   
O262     O      0.542330000000     0.260590000000     0.488570000000    -0.480097   
O263     O      0.494210000000     0.223130000000     0.483150000000    -0.488801   
O264     O      0.010080000000     0.313330000000     0.490510000000    -0.473862   
O265     O      0.995860000000     0.303160000000     0.293380000000    -0.477607   
O266     O      0.497010000000     0.210650000000     0.290670000000    -0.469133   
O267     O      0.538960000000     0.257430000000     0.295420000000    -0.484199   
O268     O      0.947560000000     0.256150000000     0.291440000000    -0.479306   
O269     O      0.946630000000     0.258010000000     0.233630000000    -0.472948   
O270     O      0.538200000000     0.259960000000     0.237830000000    -0.485427   
O271     O      0.486520000000     0.213600000000     0.234010000000    -0.480398   
O272     O      0.985510000000     0.304870000000     0.236530000000    -0.477584   
O273     O      0.739490000000     0.326260000000     0.041500000000    -0.484446   
O274     O      0.747040000000     0.234960000000     0.047440000000    -0.486755   
O275     O      0.789640000000     0.282320000000     0.042520000000    -0.488356   
O276     O      0.698620000000     0.277870000000     0.046640000000    -0.484884   
O277     O      0.697750000000     0.278660000000     0.489830000000    -0.479116   
O278     O      0.788940000000     0.272450000000     0.485130000000    -0.481547   
O279     O      0.738620000000     0.230170000000     0.490510000000    -0.470897   
O280     O      0.746840000000     0.322400000000     0.484630000000    -0.476812   
O281     O      0.749410000000     0.327950000000     0.288140000000    -0.474295   
O282     O      0.745060000000     0.236560000000     0.298350000000    -0.486032   
O283     O      0.788870000000     0.280630000000     0.292510000000    -0.483377   
O284     O      0.697480000000     0.284560000000     0.295860000000    -0.483229   
O285     O      0.695110000000     0.281920000000     0.238230000000    -0.483629   
O286     O      0.786240000000     0.274720000000     0.235240000000    -0.486041   
O287     O      0.732930000000     0.231840000000     0.242240000000    -0.483224   
O288     O      0.740290000000     0.322580000000     0.231380000000    -0.489095   
O289     O      0.527310000000     0.476060000000     0.517710000000    -0.403139   
O290     O      0.498560000000     0.065910000000     0.997290000000    -0.397944   
O291     O      0.498050000000     0.034410000000     0.063290000000    -0.413799   
O292     O      0.511430000000     0.509700000000     0.458100000000    -0.418493   
O293     O      0.959180000000     0.500630000000     0.466560000000    -0.410351   
O294     O      0.945070000000     0.026520000000     0.063120000000    -0.410314   
O295     O      0.945200000000     0.065680000000     0.003030000000    -0.402386   
O296     O      0.975360000000     0.467060000000     0.528920000000    -0.405214   
O297     O      0.500240000000     0.457340000000     0.277570000000    -0.402353   
O298     O      0.514050000000     0.050010000000     0.247020000000    -0.404295   
O299     O      0.505800000000     0.018930000000     0.310190000000    -0.417709   
O300     O      0.507680000000     0.489190000000     0.211140000000    -0.409816   
O301     O      0.954480000000     0.495240000000     0.208650000000    -0.416205   
O302     O      0.952660000000     0.025370000000     0.307500000000    -0.410028   
O303     O      0.961080000000     0.057140000000     0.242080000000    -0.396652   
O304     O      0.947140000000     0.463480000000     0.272180000000    -0.397891   
O305     O      0.748010000000     0.484370000000     0.507850000000    -0.396693   
O306     O      0.745430000000     0.079440000000     0.043740000000    -0.397919   
O307     O      0.748760000000     0.016480000000     0.074620000000    -0.41051    
O308     O      0.745820000000     0.547580000000     0.477630000000    -0.413553   
O309     O      0.692580000000     0.541730000000     0.477430000000    -0.412618   
O310     O      0.695330000000     0.019570000000     0.076900000000    -0.412859   
O311     O      0.692110000000     0.078900000000     0.037570000000    -0.402401   
O312     O      0.695020000000     0.482090000000     0.516430000000    -0.401668   
O313     O      0.760050000000     0.489950000000     0.266440000000    -0.403496   
O314     O      0.747270000000     0.083710000000     0.293490000000    -0.402579   
O315     O      0.751900000000     0.023340000000     0.328430000000    -0.415557   
O316     O      0.755420000000     0.550110000000     0.228240000000    -0.408872   
O317     O      0.702140000000     0.545150000000     0.225100000000    -0.417192   
O318     O      0.698870000000     0.016590000000     0.324340000000    -0.411946   
O319     O      0.694150000000     0.077700000000     0.288090000000    -0.402331   
O320     O      0.707060000000     0.484040000000     0.259590000000    -0.401691   
O321     O      0.000950000000     0.308410000000     0.547140000000    -0.499042   
O322     O      0.482750000000     0.219240000000     0.539580000000    -0.488712   
O323     O      0.538890000000     0.254910000000     0.545990000000    -0.482388   
O324     O      0.949340000000     0.274120000000     0.541610000000    -0.485137   
O325     O      0.950000000000     0.268370000000     0.982770000000    -0.483816   
O326     O      0.540990000000     0.268920000000     0.987960000000    -0.488516   
O327     O      0.497060000000     0.222660000000     0.985450000000    -0.48818    
O328     O      0.993380000000     0.314470000000     0.985320000000    -0.481084   
O329     O      0.002250000000     0.297900000000     0.794030000000    -0.479329   
O330     O      0.502870000000     0.206120000000     0.792540000000    -0.474073   
O331     O      0.542720000000     0.252530000000     0.796090000000    -0.476      
O332     O      0.951260000000     0.251570000000     0.791000000000    -0.48404    
O333     O      0.950410000000     0.252800000000     0.733310000000    -0.47756    
O334     O      0.542110000000     0.255080000000     0.738400000000    -0.479174   
O335     O      0.492850000000     0.207870000000     0.735830000000    -0.482925   
O336     O      0.991250000000     0.299750000000     0.737360000000    -0.475575   
O337     O      0.737880000000     0.323620000000     0.541650000000    -0.481236   
O338     O      0.749820000000     0.232420000000     0.547090000000    -0.481548   
O339     O      0.790470000000     0.281650000000     0.541960000000    -0.483905   
O340     O      0.699540000000     0.272420000000     0.547150000000    -0.480039   
O341     O      0.697480000000     0.284850000000     0.989380000000    -0.480267   
O342     O      0.787620000000     0.271320000000     0.986100000000    -0.485436   
O343     O      0.734530000000     0.232800000000     0.991220000000    -0.469119   
O344     O      0.748970000000     0.324530000000     0.984590000000    -0.472331   
O345     O      0.753240000000     0.325510000000     0.787760000000    -0.475937   
O346     O      0.747980000000     0.234300000000     0.798760000000    -0.484298   
O347     O      0.792220000000     0.277300000000     0.792790000000    -0.479923   
O348     O      0.700770000000     0.282290000000     0.796190000000    -0.483295   
O349     O      0.698240000000     0.279330000000     0.738600000000    -0.482935   
O350     O      0.789410000000     0.271540000000     0.735460000000    -0.483256   
O351     O      0.735860000000     0.229280000000     0.742660000000    -0.480934   
O352     O      0.743720000000     0.320010000000     0.731110000000    -0.488576   
O353     O      0.500670000000     0.472360000000     0.031040000000    -0.398091   
O354     O      0.506410000000     0.069260000000     0.494380000000    -0.402556   
O355     O      0.523160000000     0.034980000000     0.557860000000    -0.408143   
O356     O      0.501760000000     0.503280000000     0.965190000000    -0.414543   
O357     O      0.948570000000     0.507990000000     0.960460000000    -0.407569   
O358     O      0.970880000000     0.026120000000     0.566130000000    -0.41783    
O359     O      0.954490000000     0.060050000000     0.505370000000    -0.404665   
O360     O      0.947980000000     0.469220000000     0.020750000000    -0.401796   
O361     O      0.524540000000     0.455090000000     0.777070000000    -0.397023   
O362     O      0.539750000000     0.049550000000     0.752420000000    -0.399515   
O363     O      0.527530000000     0.015120000000     0.813930000000    -0.409127   
O364     O      0.536990000000     0.490280000000     0.712770000000    -0.402168   
O365     O      0.983740000000     0.493370000000     0.707920000000    -0.422098   
O366     O      0.975370000000     0.024550000000     0.805330000000    -0.414906   
O367     O      0.987570000000     0.055120000000     0.740350000000    -0.403846   
O368     O      0.971730000000     0.462500000000     0.770620000000    -0.403121   
O369     O      0.748610000000     0.486790000000     0.007110000000    -0.396813   
O370     O      0.747610000000     0.077160000000     0.544250000000    -0.397409   
O371     O      0.750010000000     0.014140000000     0.575190000000    -0.410543   
O372     O      0.745540000000     0.549950000000     0.977040000000    -0.413286   
O373     O      0.692460000000     0.542850000000     0.975810000000    -0.4119     
O374     O      0.696690000000     0.018360000000     0.578410000000    -0.413088   
O375     O      0.694190000000     0.077770000000     0.539100000000    -0.402109   
O376     O      0.695570000000     0.483360000000     0.014730000000    -0.402462   
O377     O      0.763740000000     0.487220000000     0.767480000000    -0.403129   
O378     O      0.750860000000     0.081090000000     0.794230000000    -0.402023   
O379     O      0.755410000000     0.020870000000     0.829460000000    -0.415062   
O380     O      0.759180000000     0.547320000000     0.729090000000    -0.408448   
O381     O      0.705880000000     0.542630000000     0.726040000000    -0.41815    
O382     O      0.702450000000     0.013790000000     0.825030000000    -0.412947   
O383     O      0.697740000000     0.074940000000     0.788990000000    -0.40205    
O384     O      0.710800000000     0.481360000000     0.760210000000    -0.401777   
O385     O      0.003550000000     0.814390000000     0.042070000000    -0.473194   
O386     O      0.485520000000     0.723360000000     0.041990000000    -0.477033   
O387     O      0.539320000000     0.760890000000     0.045070000000    -0.481758   
O388     O      0.949860000000     0.778160000000     0.039540000000    -0.483711   
O389     O      0.952560000000     0.777120000000     0.484070000000    -0.487039   
O390     O      0.542330000000     0.760590000000     0.488570000000    -0.480062   
O391     O      0.494210000000     0.723130000000     0.483150000000    -0.488761   
O392     O      0.010080000000     0.813340000000     0.490510000000    -0.473836   
O393     O      0.995860000000     0.803160000000     0.293380000000    -0.477609   
O394     O      0.497020000000     0.710650000000     0.290670000000    -0.469091   
O395     O      0.538960000000     0.757430000000     0.295420000000    -0.484175   
O396     O      0.947560000000     0.756150000000     0.291440000000    -0.479312   
O397     O      0.946630000000     0.758010000000     0.233630000000    -0.472968   
O398     O      0.538200000000     0.759960000000     0.237830000000    -0.485416   
O399     O      0.486530000000     0.713600000000     0.234010000000    -0.480435   
O400     O      0.985510000000     0.804870000000     0.236530000000    -0.477591   
O401     O      0.739490000000     0.826260000000     0.041500000000    -0.484449   
O402     O      0.747040000000     0.734960000000     0.047440000000    -0.486698   
O403     O      0.789640000000     0.782320000000     0.042520000000    -0.488356   
O404     O      0.698620000000     0.777870000000     0.046640000000    -0.484992   
O405     O      0.697750000000     0.778660000000     0.489830000000    -0.479118   
O406     O      0.788940000000     0.772450000000     0.485130000000    -0.481543   
O407     O      0.738620000000     0.730170000000     0.490510000000    -0.470881   
O408     O      0.746840000000     0.822400000000     0.484630000000    -0.476809   
O409     O      0.749410000000     0.827950000000     0.288140000000    -0.474291   
O410     O      0.745060000000     0.736560000000     0.298350000000    -0.486045   
O411     O      0.788870000000     0.780630000000     0.292510000000    -0.483354   
O412     O      0.697490000000     0.784560000000     0.295860000000    -0.483409   
O413     O      0.695110000000     0.781920000000     0.238230000000    -0.483613   
O414     O      0.786240000000     0.774720000000     0.235240000000    -0.486133   
O415     O      0.732930000000     0.731840000000     0.242240000000    -0.483226   
O416     O      0.740290000000     0.822580000000     0.231380000000    -0.489096   
O417     O      0.527310000000     0.976060000000     0.517710000000    -0.402981   
O418     O      0.498560000000     0.565910000000     0.997290000000    -0.397967   
O419     O      0.498050000000     0.534410000000     0.063290000000    -0.413793   
O420     O      0.511430000000     0.009700000000     0.458100000000    -0.418493   
O421     O      0.959180000000     0.000630000000     0.466560000000    -0.410368   
O422     O      0.945070000000     0.526520000000     0.063120000000    -0.410301   
O423     O      0.945200000000     0.565680000000     0.003030000000    -0.402413   
O424     O      0.975360000000     0.967060000000     0.528920000000    -0.405074   
O425     O      0.500240000000     0.957340000000     0.277570000000    -0.402206   
O426     O      0.514050000000     0.550010000000     0.247020000000    -0.404351   
O427     O      0.505800000000     0.518930000000     0.310190000000    -0.417738   
O428     O      0.507680000000     0.989190000000     0.211140000000    -0.409644   
O429     O      0.954480000000     0.995240000000     0.208650000000    -0.416044   
O430     O      0.952660000000     0.525370000000     0.307500000000    -0.41004    
O431     O      0.961080000000     0.557140000000     0.242080000000    -0.396576   
O432     O      0.947140000000     0.963480000000     0.272180000000    -0.397754   
O433     O      0.748010000000     0.984370000000     0.507850000000    -0.396586   
O434     O      0.745430000000     0.579440000000     0.043740000000    -0.397961   
O435     O      0.748760000000     0.516480000000     0.074620000000    -0.410521   
O436     O      0.745820000000     0.047590000000     0.477630000000    -0.41345    
O437     O      0.692570000000     0.041730000000     0.477430000000    -0.412485   
O438     O      0.695330000000     0.519570000000     0.076900000000    -0.41288    
O439     O      0.692110000000     0.578900000000     0.037570000000    -0.402435   
O440     O      0.695030000000     0.982090000000     0.516430000000    -0.401667   
O441     O      0.760050000000     0.989950000000     0.266440000000    -0.403348   
O442     O      0.747270000000     0.583710000000     0.293490000000    -0.402503   
O443     O      0.751900000000     0.523340000000     0.328430000000    -0.415584   
O444     O      0.755420000000     0.050110000000     0.228240000000    -0.40887    
O445     O      0.702140000000     0.045140000000     0.225100000000    -0.417191   
O446     O      0.698870000000     0.516590000000     0.324340000000    -0.411945   
O447     O      0.694150000000     0.577700000000     0.288090000000    -0.402438   
O448     O      0.707060000000     0.984040000000     0.259590000000    -0.401533   
O449     O      0.000950000000     0.808410000000     0.547140000000    -0.499089   
O450     O      0.482750000000     0.719240000000     0.539580000000    -0.488683   
O451     O      0.538890000000     0.754910000000     0.545990000000    -0.482355   
O452     O      0.949350000000     0.774120000000     0.541610000000    -0.485196   
O453     O      0.950000000000     0.768370000000     0.982770000000    -0.483837   
O454     O      0.540990000000     0.768910000000     0.987960000000    -0.488583   
O455     O      0.497060000000     0.722670000000     0.985450000000    -0.488258   
O456     O      0.993380000000     0.814470000000     0.985320000000    -0.481112   
O457     O      0.002250000000     0.797910000000     0.794030000000    -0.479271   
O458     O      0.502870000000     0.706120000000     0.792540000000    -0.473989   
O459     O      0.542730000000     0.752530000000     0.796090000000    -0.475879   
O460     O      0.951260000000     0.751570000000     0.791000000000    -0.484055   
O461     O      0.950410000000     0.752800000000     0.733310000000    -0.477597   
O462     O      0.542110000000     0.755080000000     0.738400000000    -0.479189   
O463     O      0.492850000000     0.707870000000     0.735830000000    -0.482956   
O464     O      0.991250000000     0.799750000000     0.737360000000    -0.475612   
O465     O      0.737880000000     0.823620000000     0.541650000000    -0.481228   
O466     O      0.749830000000     0.732420000000     0.547090000000    -0.481494   
O467     O      0.790470000000     0.781650000000     0.541960000000    -0.483888   
O468     O      0.699540000000     0.772420000000     0.547150000000    -0.48005    
O469     O      0.697480000000     0.784850000000     0.989380000000    -0.480384   
O470     O      0.787620000000     0.771320000000     0.986100000000    -0.485455   
O471     O      0.734530000000     0.732810000000     0.991220000000    -0.469207   
O472     O      0.748970000000     0.824530000000     0.984590000000    -0.472361   
O473     O      0.753240000000     0.825510000000     0.787760000000    -0.475934   
O474     O      0.747980000000     0.734300000000     0.798760000000    -0.484297   
O475     O      0.792210000000     0.777300000000     0.792790000000    -0.479962   
O476     O      0.700760000000     0.782290000000     0.796190000000    -0.483304   
O477     O      0.698230000000     0.779330000000     0.738600000000    -0.482896   
O478     O      0.789410000000     0.771540000000     0.735460000000    -0.483194   
O479     O      0.735860000000     0.729280000000     0.742660000000    -0.480916   
O480     O      0.743720000000     0.820010000000     0.731110000000    -0.488558   
O481     O      0.500670000000     0.972360000000     0.031040000000    -0.397957   
O482     O      0.506410000000     0.569260000000     0.494380000000    -0.402617   
O483     O      0.523150000000     0.534980000000     0.557860000000    -0.408379   
O484     O      0.501760000000     0.003280000000     0.965190000000    -0.414555   
O485     O      0.948570000000     0.007990000000     0.960460000000    -0.407546   
O486     O      0.970880000000     0.526120000000     0.566130000000    -0.417823   
O487     O      0.954490000000     0.560050000000     0.505370000000    -0.404726   
O488     O      0.947980000000     0.969220000000     0.020750000000    -0.401652   
O489     O      0.524540000000     0.955090000000     0.777070000000    -0.396883   
O490     O      0.539760000000     0.549550000000     0.752420000000    -0.399418   
O491     O      0.527530000000     0.515120000000     0.813930000000    -0.40918    
O492     O      0.536990000000     0.990280000000     0.712770000000    -0.402021   
O493     O      0.983740000000     0.993370000000     0.707920000000    -0.421929   
O494     O      0.975370000000     0.524560000000     0.805330000000    -0.414914   
O495     O      0.987570000000     0.555110000000     0.740350000000    -0.403901   
O496     O      0.971720000000     0.962500000000     0.770620000000    -0.402799   
O497     O      0.748610000000     0.986780000000     0.007110000000    -0.396653   
O498     O      0.747600000000     0.577160000000     0.544250000000    -0.397594   
O499     O      0.750010000000     0.514140000000     0.575190000000    -0.410696   
O500     O      0.745540000000     0.049950000000     0.977040000000    -0.413278   
O501     O      0.692460000000     0.042850000000     0.975810000000    -0.411918   
O502     O      0.696700000000     0.518360000000     0.578410000000    -0.413135   
O503     O      0.694190000000     0.577770000000     0.539100000000    -0.402199   
O504     O      0.695570000000     0.983360000000     0.014730000000    -0.402352   
O505     O      0.763740000000     0.987220000000     0.767480000000    -0.402967   
O506     O      0.750860000000     0.581090000000     0.794230000000    -0.402054   
O507     O      0.755400000000     0.520870000000     0.829460000000    -0.41521    
O508     O      0.759190000000     0.047320000000     0.729090000000    -0.408295   
O509     O      0.705880000000     0.042630000000     0.726040000000    -0.418088   
O510     O      0.702450000000     0.513790000000     0.825030000000    -0.412997   
O511     O      0.697740000000     0.574940000000     0.788990000000    -0.402078   
O512     O      0.710800000000     0.981360000000     0.760210000000    -0.401623   


