data_structure

_audit_creation_method RASPA-1.0
_audit_creation_date 2023-6-4
_audit_author_name 'Poobodin Mano'

_cell_length_a    29.0446
_cell_length_b    29.4013
_cell_length_c    21.2671
_cell_angle_alpha 89.9989
_cell_angle_beta  89.9989
_cell_angle_gamma 96.758
_cell_volume      18034.8

_symmetry_cell_setting          triclinic
_symmetry_space_group_name_Hall 'P 1'
_symmetry_space_group_name_H-M  'P 1'
_symmetry_Int_Tables_number     1

_symmetry_equiv_pos_as_xyz 'x,y,z'

loop_
_atom_site_label
_atom_site_type_symbol
_atom_site_fract_x
_atom_site_fract_y
_atom_site_fract_z
_atom_site_charge
C1       C      0.055230000000     0.421580000000     0.000990000000     0.3865     
C2       C      0.435870000000     0.049120000000     0.008970000000     0.388102   
C3       C      0.066460000000     0.047830000000     0.019180000000     0.41342    
C4       C      0.430650000000     0.416560000000     0.989450000000     0.417627   
C5       C      0.062580000000     0.438250000000     0.500860000000     0.3887     
C6       C      0.429500000000     0.051700000000     0.504920000000     0.389933   
C7       C      0.054370000000     0.069770000000     0.493040000000     0.414583   
C8       C      0.430750000000     0.426400000000     0.513010000000     0.413016   
C9       C      0.241620000000     0.227990000000     0.891220000000     0.469644   
C10      C      0.247630000000     0.243600000000     0.130480000000     0.468937   
C11      C      0.308050000000     0.180020000000     0.012080000000     0.450512   
C12      C      0.184890000000     0.293260000000     0.005070000000     0.443705   
C13      C      0.255880000000     0.239990000000     0.388180000000     0.466918   
C14      C      0.240430000000     0.235900000000     0.626950000000     0.47197    
C15      C      0.300260000000     0.181910000000     0.511350000000     0.445438   
C16      C      0.185960000000     0.303830000000     0.507690000000     0.453238   
C17      C      0.205960000000     0.197940000000     0.722840000000    -0.00850434 
C18      C      0.272330000000     0.262720000000     0.729360000000    -0.0146921  
C19      C      0.198070000000     0.208970000000     0.792840000000    -0.00898326 
C20      C      0.283940000000     0.239860000000     0.790960000000     0.0157222  
C21      C      0.309550000000     0.200440000000     0.778710000000     0.0555791  
C22      C      0.271110000000     0.286410000000     0.228990000000    -0.0112772  
C23      C      0.221160000000     0.209990000000     0.232410000000    -0.0135887  
C24      C      0.294280000000     0.273500000000     0.291150000000    -0.0113933  
C25      C      0.251430000000     0.195580000000     0.285570000000     0.0114909  
C26      C      0.228640000000     0.154790000000     0.318440000000     0.0621053  
C27      C      0.100660000000     0.377530000000     0.446320000000    -0.0143472  
C28      C      0.134790000000     0.413400000000     0.545390000000    -0.0193513  
C29      C      0.113710000000     0.330570000000     0.468120000000    -0.0096563  
C30      C      0.151020000000     0.366910000000     0.564410000000     0.0108444  
C31      C      0.193940000000     0.375370000000     0.601880000000     0.0572679  
C32      C      0.314920000000     0.363840000000     0.481110000000    -0.0338219  
C33      C      0.341900000000     0.335720000000     0.579180000000    -0.0313083  
C34      C      0.359260000000     0.393040000000     0.465000000000     0.00746507 
C35      C      0.376890000000     0.379560000000     0.582270000000     0.0204627  
C36      C      0.357290000000     0.415690000000     0.618200000000     0.0578649  
C37      C      0.320070000000     0.104670000000     0.540580000000    -0.00867028 
C38      C      0.377090000000     0.160470000000     0.480530000000    -0.0126412  
C39      C      0.364450000000     0.083210000000     0.559310000000    -0.0138438  
C40      C      0.395530000000     0.116460000000     0.455370000000     0.00760838 
C41      C      0.366390000000     0.096930000000     0.403110000000     0.066262   
C42      C      0.127440000000     0.166000000000     0.551070000000    -0.0339482  
C43      C      0.128680000000     0.173100000000     0.436740000000    -0.0349192  
C44      C      0.077450000000     0.144870000000     0.541450000000     0.00407101 
C45      C      0.092550000000     0.131520000000     0.426420000000     0.024294   
C46      C      0.053840000000     0.144100000000     0.387940000000     0.0485133  
C47      C      0.077430000000     0.348660000000     0.042810000000    -0.013998   
C48      C      0.111950000000     0.381020000000     0.942290000000    -0.0181321  
C49      C      0.122650000000     0.328010000000     0.057680000000    -0.0115283  
C50      C      0.159170000000     0.364940000000     0.959780000000     0.0134725  
C51      C      0.183310000000     0.355150000000     0.900970000000     0.0577779  
C52      C      0.358050000000     0.322220000000     0.047470000000    -0.0358336  
C53      C      0.344930000000     0.322340000000     0.931710000000    -0.0383846  
C54      C      0.407400000000     0.338840000000     0.028080000000     0.00523992 
C55      C      0.381150000000     0.363860000000     0.921910000000     0.025709   
C56      C      0.413600000000     0.354520000000     0.871560000000     0.05282    
C57      C      0.326190000000     0.100640000000     0.030450000000    -0.0112613  
C58      C      0.380570000000     0.156450000000     0.968320000000    -0.015738   
C59      C      0.368110000000     0.079110000000     0.056800000000    -0.0131219  
C60      C      0.421690000000     0.130580000000     0.989210000000     0.0104383  
C61      C      0.456480000000     0.132770000000     0.938350000000     0.0602275  
C62      C      0.179680000000     0.114290000000     0.982410000000    -0.0304999  
C63      C      0.156600000000     0.135590000000     0.085670000000    -0.0291539  
C64      C      0.137090000000     0.081610000000     0.969250000000     0.00718771 
C65      C      0.124200000000     0.089940000000     0.088570000000     0.0200887  
C66      C      0.148010000000     0.053640000000     0.117660000000     0.051383   
C67      C      0.055230000000     0.921580000000     0.000990000000     0.386427   
C68      C      0.435870000000     0.549120000000     0.008970000000     0.388232   
C69      C      0.066460000000     0.547830000000     0.019180000000     0.413509   
C70      C      0.430650000000     0.916560000000     0.989450000000     0.417582   
C71      C      0.062580000000     0.938250000000     0.500860000000     0.388581   
C72      C      0.429500000000     0.551700000000     0.504920000000     0.390007   
C73      C      0.054370000000     0.569770000000     0.493040000000     0.414575   
C74      C      0.430750000000     0.926400000000     0.513010000000     0.41299    
C75      C      0.241620000000     0.727990000000     0.891220000000     0.469643   
C76      C      0.247630000000     0.743600000000     0.130480000000     0.468938   
C77      C      0.308050000000     0.680010000000     0.012080000000     0.450509   
C78      C      0.184890000000     0.793260000000     0.005070000000     0.443706   
C79      C      0.255880000000     0.739990000000     0.388180000000     0.466923   
C80      C      0.240430000000     0.735900000000     0.626950000000     0.471977   
C81      C      0.300260000000     0.681910000000     0.511350000000     0.445448   
C82      C      0.185960000000     0.803830000000     0.507690000000     0.453313   
C83      C      0.205960000000     0.697940000000     0.722840000000    -0.00850327 
C84      C      0.272330000000     0.762720000000     0.729360000000    -0.0146891  
C85      C      0.198070000000     0.708970000000     0.792840000000    -0.00898463 
C86      C      0.283940000000     0.739860000000     0.790960000000     0.0157221  
C87      C      0.309550000000     0.700440000000     0.778710000000     0.055569   
C88      C      0.271110000000     0.786410000000     0.228990000000    -0.0112487  
C89      C      0.221160000000     0.709990000000     0.232410000000    -0.013586   
C90      C      0.294280000000     0.773510000000     0.291150000000    -0.0114501  
C91      C      0.251430000000     0.695580000000     0.285570000000     0.0114923  
C92      C      0.228640000000     0.654790000000     0.318440000000     0.0620885  
C93      C      0.100660000000     0.877540000000     0.446320000000    -0.0143112  
C94      C      0.134790000000     0.913400000000     0.545390000000    -0.0193597  
C95      C      0.113710000000     0.830570000000     0.468120000000    -0.0096726  
C96      C      0.151020000000     0.866910000000     0.564410000000     0.0108472  
C97      C      0.193940000000     0.875370000000     0.601880000000     0.0572292  
C98      C      0.314920000000     0.863840000000     0.481110000000    -0.0338231  
C99      C      0.341900000000     0.835720000000     0.579180000000    -0.0313135  
C100     C      0.359260000000     0.893040000000     0.465000000000     0.00746981 
C101     C      0.376890000000     0.879570000000     0.582270000000     0.0204906  
C102     C      0.357290000000     0.915690000000     0.618200000000     0.0578041  
C103     C      0.320070000000     0.604670000000     0.540580000000    -0.0086784  
C104     C      0.377080000000     0.660470000000     0.480530000000    -0.012574   
C105     C      0.364450000000     0.583210000000     0.559310000000    -0.0138141  
C106     C      0.395520000000     0.616460000000     0.455370000000     0.00762199 
C107     C      0.366390000000     0.596930000000     0.403110000000     0.0662106  
C108     C      0.127440000000     0.666000000000     0.551070000000    -0.0339302  
C109     C      0.128680000000     0.673100000000     0.436740000000    -0.0349312  
C110     C      0.077450000000     0.644880000000     0.541450000000     0.00402341 
C111     C      0.092550000000     0.631520000000     0.426420000000     0.0243049  
C112     C      0.053840000000     0.644100000000     0.387940000000     0.0484723  
C113     C      0.077430000000     0.848660000000     0.042810000000    -0.014008   
C114     C      0.111950000000     0.881020000000     0.942290000000    -0.0181498  
C115     C      0.122650000000     0.828010000000     0.057680000000    -0.0115234  
C116     C      0.159170000000     0.864940000000     0.959780000000     0.0135003  
C117     C      0.183310000000     0.855150000000     0.900970000000     0.0577355  
C118     C      0.358050000000     0.822220000000     0.047470000000    -0.0358518  
C119     C      0.344930000000     0.822340000000     0.931710000000    -0.0383917  
C120     C      0.407400000000     0.838850000000     0.028080000000     0.00527731 
C121     C      0.381150000000     0.863860000000     0.921910000000     0.0257142  
C122     C      0.413600000000     0.854520000000     0.871560000000     0.0528039  
C123     C      0.326190000000     0.600640000000     0.030450000000    -0.0112902  
C124     C      0.380570000000     0.656450000000     0.968320000000    -0.0157141  
C125     C      0.368110000000     0.579110000000     0.056800000000    -0.0131201  
C126     C      0.421690000000     0.630580000000     0.989210000000     0.0104628  
C127     C      0.456480000000     0.632770000000     0.938350000000     0.0601993  
C128     C      0.179680000000     0.614290000000     0.982410000000    -0.0305143  
C129     C      0.156600000000     0.635580000000     0.085670000000    -0.0291414  
C130     C      0.137080000000     0.581610000000     0.969250000000     0.00722649 
C131     C      0.124200000000     0.589940000000     0.088570000000     0.0201027  
C132     C      0.148010000000     0.553640000000     0.117660000000     0.0512935  
C133     C      0.555230000000     0.421580000000     0.000990000000     0.386578   
C134     C      0.935870000000     0.049120000000     0.008970000000     0.388036   
C135     C      0.566460000000     0.047830000000     0.019180000000     0.413511   
C136     C      0.930650000000     0.416560000000     0.989450000000     0.417548   
C137     C      0.562580000000     0.438250000000     0.500860000000     0.388781   
C138     C      0.929500000000     0.051700000000     0.504920000000     0.389865   
C139     C      0.554370000000     0.069770000000     0.493040000000     0.414666   
C140     C      0.930750000000     0.426400000000     0.513010000000     0.413003   
C141     C      0.741620000000     0.227990000000     0.891220000000     0.46965    
C142     C      0.747630000000     0.243600000000     0.130480000000     0.46894    
C143     C      0.808050000000     0.180020000000     0.012080000000     0.45051    
C144     C      0.684890000000     0.293260000000     0.005070000000     0.443554   
C145     C      0.755880000000     0.239990000000     0.388180000000     0.466922   
C146     C      0.740420000000     0.235900000000     0.626950000000     0.471967   
C147     C      0.800260000000     0.181910000000     0.511350000000     0.445384   
C148     C      0.685960000000     0.303830000000     0.507690000000     0.453313   
C149     C      0.705960000000     0.197940000000     0.722840000000    -0.00847956 
C150     C      0.772330000000     0.262720000000     0.729360000000    -0.0147169  
C151     C      0.698070000000     0.208970000000     0.792840000000    -0.0089852  
C152     C      0.783940000000     0.239860000000     0.790960000000     0.0157322  
C153     C      0.809550000000     0.200440000000     0.778710000000     0.055563   
C154     C      0.771110000000     0.286410000000     0.228990000000    -0.0112587  
C155     C      0.721170000000     0.209990000000     0.232410000000    -0.0135287  
C156     C      0.794280000000     0.273500000000     0.291150000000    -0.0113964  
C157     C      0.751430000000     0.195580000000     0.285570000000     0.011472   
C158     C      0.728640000000     0.154790000000     0.318440000000     0.062103   
C159     C      0.600660000000     0.377530000000     0.446320000000    -0.0143481  
C160     C      0.634790000000     0.413400000000     0.545390000000    -0.0193542  
C161     C      0.613710000000     0.330570000000     0.468120000000    -0.00965218 
C162     C      0.651020000000     0.366910000000     0.564410000000     0.0108519  
C163     C      0.693940000000     0.375370000000     0.601880000000     0.0572486  
C164     C      0.814920000000     0.363840000000     0.481110000000    -0.0338249  
C165     C      0.841900000000     0.335720000000     0.579180000000    -0.0313142  
C166     C      0.859260000000     0.393040000000     0.465000000000     0.00746733 
C167     C      0.876890000000     0.379560000000     0.582270000000     0.0204672  
C168     C      0.857290000000     0.415690000000     0.618200000000     0.0578626  
C169     C      0.820070000000     0.104670000000     0.540580000000    -0.00868114 
C170     C      0.877090000000     0.160470000000     0.480530000000    -0.0126421  
C171     C      0.864450000000     0.083210000000     0.559310000000    -0.0138346  
C172     C      0.895530000000     0.116460000000     0.455370000000     0.00762959 
C173     C      0.866390000000     0.096930000000     0.403110000000     0.0662216  
C174     C      0.627440000000     0.166000000000     0.551070000000    -0.0339547  
C175     C      0.628680000000     0.173100000000     0.436740000000    -0.0349185  
C176     C      0.577450000000     0.144870000000     0.541450000000     0.00408924 
C177     C      0.592550000000     0.131520000000     0.426420000000     0.0243054  
C178     C      0.553840000000     0.144100000000     0.387940000000     0.0483999  
C179     C      0.577440000000     0.348660000000     0.042810000000    -0.0139339  
C180     C      0.611950000000     0.381020000000     0.942290000000    -0.0181125  
C181     C      0.622650000000     0.328010000000     0.057680000000    -0.0115608  
C182     C      0.659170000000     0.364940000000     0.959780000000     0.0134553  
C183     C      0.683310000000     0.355150000000     0.900970000000     0.057761   
C184     C      0.858050000000     0.322220000000     0.047470000000    -0.035836   
C185     C      0.844930000000     0.322340000000     0.931710000000    -0.0383817  
C186     C      0.907400000000     0.338840000000     0.028080000000     0.00524617 
C187     C      0.881150000000     0.363860000000     0.921910000000     0.0257089  
C188     C      0.913600000000     0.354520000000     0.871560000000     0.0527629  
C189     C      0.826180000000     0.100640000000     0.030450000000    -0.0113113  
C190     C      0.880570000000     0.156450000000     0.968320000000    -0.0157457  
C191     C      0.868110000000     0.079110000000     0.056800000000    -0.0131009  
C192     C      0.921690000000     0.130580000000     0.989210000000     0.0104599  
C193     C      0.956480000000     0.132770000000     0.938350000000     0.0601211  
C194     C      0.679680000000     0.114290000000     0.982410000000    -0.03052    
C195     C      0.656600000000     0.135590000000     0.085670000000    -0.0291636  
C196     C      0.637080000000     0.081610000000     0.969250000000     0.0072265  
C197     C      0.624200000000     0.089940000000     0.088570000000     0.0200999  
C198     C      0.648000000000     0.053640000000     0.117660000000     0.0513423  
C199     C      0.555230000000     0.921580000000     0.000990000000     0.386505   
C200     C      0.935870000000     0.549120000000     0.008970000000     0.388165   
C201     C      0.566460000000     0.547830000000     0.019180000000     0.413599   
C202     C      0.930650000000     0.916560000000     0.989450000000     0.417503   
C203     C      0.562580000000     0.938250000000     0.500860000000     0.388674   
C204     C      0.929500000000     0.551700000000     0.504920000000     0.389934   
C205     C      0.554370000000     0.569770000000     0.493040000000     0.414662   
C206     C      0.930750000000     0.926400000000     0.513010000000     0.41285    
C207     C      0.741620000000     0.727990000000     0.891220000000     0.469645   
C208     C      0.747630000000     0.743600000000     0.130480000000     0.468936   
C209     C      0.808050000000     0.680010000000     0.012080000000     0.450443   
C210     C      0.684890000000     0.793260000000     0.005070000000     0.443703   
C211     C      0.755880000000     0.739990000000     0.388180000000     0.466929   
C212     C      0.740430000000     0.735900000000     0.626950000000     0.47198    
C213     C      0.800260000000     0.681910000000     0.511350000000     0.445454   
C214     C      0.685960000000     0.803830000000     0.507690000000     0.453389   
C215     C      0.705960000000     0.697940000000     0.722840000000    -0.008473   
C216     C      0.772330000000     0.762720000000     0.729360000000    -0.0147201  
C217     C      0.698070000000     0.708970000000     0.792840000000    -0.00898824 
C218     C      0.783940000000     0.739860000000     0.790960000000     0.0157334  
C219     C      0.809550000000     0.700440000000     0.778710000000     0.0555505  
C220     C      0.771110000000     0.786410000000     0.228990000000    -0.0112713  
C221     C      0.721170000000     0.709990000000     0.232410000000    -0.0135281  
C222     C      0.794270000000     0.773510000000     0.291150000000    -0.0113876  
C223     C      0.751430000000     0.695580000000     0.285570000000     0.0114752  
C224     C      0.728640000000     0.654790000000     0.318440000000     0.0620859  
C225     C      0.600660000000     0.877540000000     0.446320000000    -0.0143127  
C226     C      0.634790000000     0.913400000000     0.545390000000    -0.0193613  
C227     C      0.613710000000     0.830570000000     0.468120000000    -0.00966843 
C228     C      0.651020000000     0.866910000000     0.564410000000     0.0108545  
C229     C      0.693940000000     0.875370000000     0.601880000000     0.0572119  
C230     C      0.814920000000     0.863840000000     0.481110000000    -0.0338276  
C231     C      0.841900000000     0.835720000000     0.579180000000    -0.031315   
C232     C      0.859260000000     0.893040000000     0.465000000000     0.00747611 
C233     C      0.876890000000     0.879570000000     0.582270000000     0.0204835  
C234     C      0.857290000000     0.915690000000     0.618200000000     0.0577994  
C235     C      0.820070000000     0.604670000000     0.540580000000    -0.00866159 
C236     C      0.877080000000     0.660470000000     0.480530000000    -0.0125785  
C237     C      0.864450000000     0.583210000000     0.559310000000    -0.0138161  
C238     C      0.895530000000     0.616460000000     0.455370000000     0.00759315 
C239     C      0.866390000000     0.596930000000     0.403110000000     0.066187   
C240     C      0.627440000000     0.666000000000     0.551070000000    -0.033956   
C241     C      0.628680000000     0.673100000000     0.436740000000    -0.034932   
C242     C      0.577460000000     0.644880000000     0.541450000000     0.00408272 
C243     C      0.592550000000     0.631520000000     0.426420000000     0.0243176  
C244     C      0.553840000000     0.644100000000     0.387940000000     0.0483571  
C245     C      0.577430000000     0.848660000000     0.042810000000    -0.0139972  
C246     C      0.611950000000     0.881020000000     0.942290000000    -0.0181342  
C247     C      0.622660000000     0.828010000000     0.057680000000    -0.0115183  
C248     C      0.659170000000     0.864940000000     0.959780000000     0.013492   
C249     C      0.683310000000     0.855150000000     0.900970000000     0.0577179  
C250     C      0.858040000000     0.822220000000     0.047470000000    -0.0358391  
C251     C      0.844930000000     0.822340000000     0.931710000000    -0.0383897  
C252     C      0.907400000000     0.838850000000     0.028080000000     0.00528342 
C253     C      0.881150000000     0.863860000000     0.921910000000     0.0257135  
C254     C      0.913600000000     0.854520000000     0.871560000000     0.0527468  
C255     C      0.826190000000     0.600640000000     0.030450000000    -0.0113204  
C256     C      0.880570000000     0.656450000000     0.968320000000    -0.0156969  
C257     C      0.868110000000     0.579110000000     0.056800000000    -0.0131065  
C258     C      0.921690000000     0.630580000000     0.989210000000     0.0104678  
C259     C      0.956480000000     0.632770000000     0.938350000000     0.0600989  
C260     C      0.679680000000     0.614290000000     0.982410000000    -0.0305254  
C261     C      0.656600000000     0.635580000000     0.085670000000    -0.029151   
C262     C      0.637080000000     0.581610000000     0.969250000000     0.00724147 
C263     C      0.624200000000     0.589940000000     0.088570000000     0.0201121  
C264     C      0.648010000000     0.553640000000     0.117660000000     0.0512666  
Cu1      Cu     0.498670000000     0.990020000000     0.947270000000     0.862183   
Cu2      Cu     0.992170000000     0.480230000000     0.062420000000     0.844565   
Cu3      Cu     0.493570000000     0.993360000000     0.445100000000     0.848005   
Cu4      Cu     0.998580000000     0.497090000000     0.560590000000     0.851625   
Cu5      Cu     0.280740000000     0.271350000000     0.004130000000     1.12892    
Cu6      Cu     0.210370000000     0.201630000000     0.016290000000     1.13979    
Cu7      Cu     0.278900000000     0.277090000000     0.511650000000     1.14571    
Cu8      Cu     0.207230000000     0.208620000000     0.501900000000     1.12859    
Cu9      Cu     0.498670000000     0.490020000000     0.947270000000     0.862894   
Cu10     Cu     0.992170000000     0.980230000000     0.062420000000     0.843808   
Cu11     Cu     0.493570000000     0.493360000000     0.445100000000     0.848753   
Cu12     Cu     0.998580000000     0.997090000000     0.560590000000     0.850937   
Cu13     Cu     0.280740000000     0.771350000000     0.004130000000     1.1289     
Cu14     Cu     0.210370000000     0.701630000000     0.016290000000     1.1398     
Cu15     Cu     0.278900000000     0.777090000000     0.511650000000     1.14583    
Cu16     Cu     0.207230000000     0.708620000000     0.501900000000     1.12859    
Cu17     Cu     0.998670000000     0.990020000000     0.947270000000     0.861412   
Cu18     Cu     0.492170000000     0.480230000000     0.062420000000     0.845333   
Cu19     Cu     0.993570000000     0.993360000000     0.445100000000     0.84721    
Cu20     Cu     0.498580000000     0.497090000000     0.560590000000     0.852449   
Cu21     Cu     0.780740000000     0.271350000000     0.004130000000     1.12901    
Cu22     Cu     0.710370000000     0.201630000000     0.016290000000     1.13976    
Cu23     Cu     0.778900000000     0.277090000000     0.511650000000     1.14569    
Cu24     Cu     0.707230000000     0.208620000000     0.501900000000     1.12871    
Cu25     Cu     0.998670000000     0.490020000000     0.947270000000     0.862123   
Cu26     Cu     0.492170000000     0.980230000000     0.062420000000     0.844575   
Cu27     Cu     0.993570000000     0.493360000000     0.445100000000     0.847978   
Cu28     Cu     0.498580000000     0.997090000000     0.560590000000     0.851646   
Cu29     Cu     0.780740000000     0.771350000000     0.004130000000     1.12891    
Cu30     Cu     0.710370000000     0.701630000000     0.016290000000     1.13979    
Cu31     Cu     0.778900000000     0.777090000000     0.511650000000     1.14584    
Cu32     Cu     0.707230000000     0.708620000000     0.501900000000     1.12869    
H1       H      0.174830000000     0.236370000000     0.795670000000     0.0479803  
H2       H      0.171940000000     0.194260000000     0.698230000000     0.0417278  
H3       H      0.307760000000     0.265250000000     0.817430000000     0.042701   
H4       H      0.256520000000     0.294430000000     0.740490000000     0.0532911  
H5       H      0.219410000000     0.164150000000     0.719620000000     0.04594    
H6       H      0.305060000000     0.273680000000     0.703430000000     0.0491763  
H7       H      0.179510000000     0.178250000000     0.816120000000     0.0439322  
H8       H      0.328070000000     0.261440000000     0.279110000000     0.0404285  
H9       H      0.297410000000     0.306800000000     0.199220000000     0.0420728  
H10      H      0.283030000000     0.184520000000     0.263410000000     0.0424735  
H11      H      0.208560000000     0.179350000000     0.203880000000     0.0467729  
H12      H      0.244250000000     0.308990000000     0.240930000000     0.0396475  
H13      H      0.190380000000     0.223910000000     0.252690000000     0.0443629  
H14      H      0.301900000000     0.304930000000     0.320170000000     0.0436879  
H15      H      0.083780000000     0.312380000000     0.494090000000     0.0423156  
H16      H      0.067990000000     0.371900000000     0.418650000000     0.0451929  
H17      H      0.124010000000     0.349890000000     0.596420000000     0.0394273  
H18      H      0.125650000000     0.431810000000     0.588510000000     0.0516716  
H19      H      0.128450000000     0.393480000000     0.414620000000     0.0455578  
H20      H      0.164360000000     0.434950000000     0.522880000000     0.0485988  
H21      H      0.119960000000     0.309760000000     0.425920000000     0.0388981  
H22      H      0.376340000000     0.377360000000     0.424900000000     0.0445782  
H23      H      0.296170000000     0.353790000000     0.437050000000     0.0413026  
H24      H      0.407850000000     0.371210000000     0.608810000000     0.0443811  
H25      H      0.358380000000     0.306630000000     0.599050000000     0.0460424  
H26      H      0.292250000000     0.383550000000     0.510180000000     0.0535757  
H27      H      0.310770000000     0.339400000000     0.608320000000     0.0519794  
H28      H      0.351260000000     0.427400000000     0.449390000000     0.0405687  
H29      H      0.382380000000     0.103790000000     0.597890000000     0.0509773  
H30      H      0.298110000000     0.107360000000     0.582970000000     0.0462501  
H31      H      0.431000000000     0.126110000000     0.436280000000     0.045598   
H32      H      0.402160000000     0.176910000000     0.515560000000     0.0468306  
H33      H      0.299480000000     0.081600000000     0.506910000000     0.0540422  
H34      H      0.375410000000     0.185520000000     0.441540000000     0.0471869  
H35      H      0.354500000000     0.048080000000     0.577950000000     0.050645   
H36      H      0.063850000000     0.128720000000     0.586000000000     0.0443657  
H37      H      0.143440000000     0.146340000000     0.588130000000     0.050427   
H38      H      0.109060000000     0.104810000000     0.400490000000     0.0506056  
H39      H      0.151360000000     0.177250000000     0.394930000000     0.0502994  
H40      H      0.127110000000     0.201800000000     0.567640000000     0.0373283  
H41      H      0.111990000000     0.205130000000     0.441990000000     0.0458809  
H42      H      0.055950000000     0.172800000000     0.530530000000     0.0351401  
H43      H      0.142100000000     0.350290000000     0.093360000000     0.0417025  
H44      H      0.061550000000     0.358390000000     0.087690000000     0.0451755  
H45      H      0.180380000000     0.393630000000     0.984110000000     0.0445405  
H46      H      0.118200000000     0.413350000000     0.914680000000     0.0494739  
H47      H      0.052730000000     0.321290000000     0.021250000000     0.0421127  
H48      H      0.092170000000     0.354730000000     0.911900000000     0.0519279  
H49      H      0.113650000000     0.293990000000     0.080240000000     0.04551    
H50      H      0.428420000000     0.349750000000     0.070320000000     0.0403976  
H51      H      0.347320000000     0.345000000000     0.085070000000     0.0497021  
H52      H      0.363410000000     0.393670000000     0.907010000000     0.0439935  
H53      H      0.317100000000     0.324740000000     0.896520000000     0.0511758  
H54      H      0.357540000000     0.287480000000     0.067740000000     0.0368648  
H55      H      0.360130000000     0.289680000000     0.924260000000     0.0510206  
H56      H      0.422990000000     0.309660000000     0.006710000000     0.0351233  
H57      H      0.379660000000     0.097160000000     0.101040000000     0.0469585  
H58      H      0.298810000000     0.099060000000     0.067250000000     0.0431497  
H59      H      0.438580000000     0.150070000000     0.029490000000     0.0380594  
H60      H      0.392800000000     0.193700000000     0.965020000000     0.0492922  
H61      H      0.311830000000     0.079830000000     0.989770000000     0.0465381  
H62      H      0.369650000000     0.145040000000     0.920080000000     0.0514783  
H63      H      0.356940000000     0.042590000000     0.068600000000     0.0445032  
H64      H      0.117400000000     0.095730000000     0.930310000000     0.0499625  
H65      H      0.194760000000     0.127450000000     0.937220000000     0.0390756  
H66      H      0.094410000000     0.095130000000     0.119620000000     0.0433707  
H67      H      0.140000000000     0.162290000000     0.111290000000     0.0457838  
H68      H      0.206150000000     0.096130000000     0.006800000000     0.0453223  
H69      H      0.190220000000     0.132290000000     0.109380000000     0.0440054  
H70      H      0.147290000000     0.048250000000     0.952920000000     0.0382921  
H71      H      0.174830000000     0.736370000000     0.795670000000     0.047977   
H72      H      0.171940000000     0.694270000000     0.698230000000     0.0417178  
H73      H      0.307760000000     0.765250000000     0.817430000000     0.0426992  
H74      H      0.256520000000     0.794430000000     0.740490000000     0.0532846  
H75      H      0.219410000000     0.664150000000     0.719620000000     0.0459122  
H76      H      0.305060000000     0.773680000000     0.703430000000     0.0491732  
H77      H      0.179510000000     0.678250000000     0.816120000000     0.0439139  
H78      H      0.328070000000     0.761440000000     0.279110000000     0.0404399  
H79      H      0.297410000000     0.806800000000     0.199220000000     0.042049   
H80      H      0.283030000000     0.684520000000     0.263410000000     0.0424657  
H81      H      0.208560000000     0.679350000000     0.203880000000     0.046765   
H82      H      0.244250000000     0.808990000000     0.240930000000     0.0396196  
H83      H      0.190380000000     0.723910000000     0.252690000000     0.0443582  
H84      H      0.301900000000     0.804930000000     0.320170000000     0.0436925  
H85      H      0.083780000000     0.812380000000     0.494090000000     0.0423215  
H86      H      0.067990000000     0.871900000000     0.418650000000     0.0451687  
H87      H      0.124010000000     0.849890000000     0.596420000000     0.0394224  
H88      H      0.125650000000     0.931810000000     0.588510000000     0.0516161  
H89      H      0.128450000000     0.893470000000     0.414620000000     0.0454994  
H90      H      0.164360000000     0.934950000000     0.522880000000     0.0485247  
H91      H      0.119960000000     0.809760000000     0.425920000000     0.0388938  
H92      H      0.376340000000     0.877360000000     0.424900000000     0.044558   
H93      H      0.296170000000     0.853790000000     0.437050000000     0.0412818  
H94      H      0.407860000000     0.871210000000     0.608810000000     0.0443655  
H95      H      0.358380000000     0.806630000000     0.599050000000     0.0460414  
H96      H      0.292250000000     0.883550000000     0.510180000000     0.0535429  
H97      H      0.310770000000     0.839400000000     0.608320000000     0.0519761  
H98      H      0.351260000000     0.927400000000     0.449390000000     0.0404911  
H99      H      0.382380000000     0.603790000000     0.597890000000     0.050939   
H100     H      0.298110000000     0.607360000000     0.582970000000     0.0462099  
H101     H      0.431010000000     0.626110000000     0.436280000000     0.0455824  
H102     H      0.402160000000     0.676910000000     0.515560000000     0.0468055  
H103     H      0.299480000000     0.581600000000     0.506910000000     0.0539806  
H104     H      0.375410000000     0.685530000000     0.441540000000     0.0471647  
H105     H      0.354500000000     0.548070000000     0.577950000000     0.0505224  
H106     H      0.063850000000     0.628720000000     0.586000000000     0.0443438  
H107     H      0.143440000000     0.646340000000     0.588130000000     0.0503926  
H108     H      0.109060000000     0.604810000000     0.400490000000     0.0505564  
H109     H      0.151360000000     0.677240000000     0.394930000000     0.0503014  
H110     H      0.127110000000     0.701800000000     0.567640000000     0.037324   
H111     H      0.111990000000     0.705130000000     0.441990000000     0.0458881  
H112     H      0.055950000000     0.672800000000     0.530530000000     0.0351505  
H113     H      0.142100000000     0.850290000000     0.093360000000     0.0416668  
H114     H      0.061550000000     0.858390000000     0.087690000000     0.0451584  
H115     H      0.180380000000     0.893640000000     0.984110000000     0.0444687  
H116     H      0.118200000000     0.913350000000     0.914680000000     0.0494165  
H117     H      0.052730000000     0.821290000000     0.021250000000     0.0421179  
H118     H      0.092170000000     0.854730000000     0.911900000000     0.0519271  
H119     H      0.113650000000     0.793990000000     0.080240000000     0.0455053  
H120     H      0.428410000000     0.849750000000     0.070320000000     0.0403772  
H121     H      0.347320000000     0.845000000000     0.085070000000     0.0496777  
H122     H      0.363410000000     0.893670000000     0.907010000000     0.0439456  
H123     H      0.317100000000     0.824740000000     0.896520000000     0.0511673  
H124     H      0.357540000000     0.787480000000     0.067740000000     0.0368662  
H125     H      0.360130000000     0.789680000000     0.924260000000     0.0510223  
H126     H      0.422990000000     0.809660000000     0.006710000000     0.0351149  
H127     H      0.379650000000     0.597170000000     0.101040000000     0.0469317  
H128     H      0.298810000000     0.599060000000     0.067250000000     0.0431257  
H129     H      0.438590000000     0.650070000000     0.029490000000     0.038051   
H130     H      0.392800000000     0.693700000000     0.965020000000     0.0492898  
H131     H      0.311830000000     0.579830000000     0.989770000000     0.0464859  
H132     H      0.369650000000     0.645040000000     0.920080000000     0.051451   
H133     H      0.356940000000     0.542590000000     0.068600000000     0.0444104  
H134     H      0.117400000000     0.595730000000     0.930310000000     0.0499202  
H135     H      0.194760000000     0.627450000000     0.937220000000     0.0390582  
H136     H      0.094410000000     0.595130000000     0.119620000000     0.0433426  
H137     H      0.140000000000     0.662290000000     0.111290000000     0.0457722  
H138     H      0.206150000000     0.596130000000     0.006800000000     0.0452948  
H139     H      0.190220000000     0.632290000000     0.109380000000     0.0439942  
H140     H      0.147290000000     0.548250000000     0.952920000000     0.0381851  
H141     H      0.674830000000     0.236370000000     0.795670000000     0.0479495  
H142     H      0.671940000000     0.194260000000     0.698230000000     0.0416942  
H143     H      0.807760000000     0.265250000000     0.817430000000     0.042693   
H144     H      0.756520000000     0.294430000000     0.740490000000     0.0532926  
H145     H      0.719410000000     0.164150000000     0.719620000000     0.0459254  
H146     H      0.805060000000     0.273680000000     0.703430000000     0.0491727  
H147     H      0.679510000000     0.178250000000     0.816120000000     0.0439037  
H148     H      0.828070000000     0.261440000000     0.279110000000     0.0403979  
H149     H      0.797420000000     0.306800000000     0.199220000000     0.0420527  
H150     H      0.783030000000     0.184520000000     0.263410000000     0.0424654  
H151     H      0.708560000000     0.179350000000     0.203880000000     0.0467473  
H152     H      0.744250000000     0.308990000000     0.240930000000     0.0396374  
H153     H      0.690380000000     0.223910000000     0.252690000000     0.0443285  
H154     H      0.801900000000     0.304930000000     0.320170000000     0.0436748  
H155     H      0.583780000000     0.312380000000     0.494090000000     0.0422427  
H156     H      0.567990000000     0.371900000000     0.418650000000     0.0451085  
H157     H      0.624010000000     0.349890000000     0.596420000000     0.0393767  
H158     H      0.625650000000     0.431810000000     0.588510000000     0.0516371  
H159     H      0.628450000000     0.393480000000     0.414620000000     0.0455403  
H160     H      0.664360000000     0.434950000000     0.522880000000     0.0485959  
H161     H      0.619960000000     0.309760000000     0.425920000000     0.0388657  
H162     H      0.876340000000     0.377360000000     0.424900000000     0.044539   
H163     H      0.796170000000     0.353790000000     0.437050000000     0.0413002  
H164     H      0.907850000000     0.371210000000     0.608810000000     0.044329   
H165     H      0.858380000000     0.306630000000     0.599050000000     0.0460145  
H166     H      0.792250000000     0.383550000000     0.510180000000     0.0535795  
H167     H      0.810770000000     0.339400000000     0.608320000000     0.0519782  
H168     H      0.851260000000     0.427400000000     0.449390000000     0.0405682  
H169     H      0.882380000000     0.103790000000     0.597890000000     0.0509388  
H170     H      0.798110000000     0.107360000000     0.582970000000     0.0462457  
H171     H      0.931010000000     0.126110000000     0.436280000000     0.0454873  
H172     H      0.902150000000     0.176910000000     0.515560000000     0.046772   
H173     H      0.799470000000     0.081600000000     0.506910000000     0.0540408  
H174     H      0.875410000000     0.185520000000     0.441540000000     0.0471454  
H175     H      0.854500000000     0.048080000000     0.577950000000     0.0506414  
H176     H      0.563850000000     0.128720000000     0.586000000000     0.0442742  
H177     H      0.643440000000     0.146340000000     0.588130000000     0.0504122  
H178     H      0.609060000000     0.104810000000     0.400490000000     0.0505844  
H179     H      0.651360000000     0.177250000000     0.394930000000     0.0502912  
H180     H      0.627110000000     0.201800000000     0.567640000000     0.0373013  
H181     H      0.611990000000     0.205130000000     0.441990000000     0.0458533  
H182     H      0.555950000000     0.172800000000     0.530530000000     0.0350428  
H183     H      0.642100000000     0.350290000000     0.093360000000     0.0416966  
H184     H      0.561550000000     0.358390000000     0.087690000000     0.0450699  
H185     H      0.680380000000     0.393630000000     0.984110000000     0.0445439  
H186     H      0.618200000000     0.413350000000     0.914680000000     0.0494376  
H187     H      0.552730000000     0.321290000000     0.021250000000     0.0419769  
H188     H      0.592170000000     0.354730000000     0.911900000000     0.0518491  
H189     H      0.613650000000     0.293990000000     0.080240000000     0.0454744  
H190     H      0.928420000000     0.349750000000     0.070320000000     0.0403177  
H191     H      0.847320000000     0.345000000000     0.085070000000     0.0496933  
H192     H      0.863410000000     0.393670000000     0.907010000000     0.0439934  
H193     H      0.817100000000     0.324740000000     0.896520000000     0.0511763  
H194     H      0.857540000000     0.287480000000     0.067740000000     0.0368441  
H195     H      0.860130000000     0.289680000000     0.924260000000     0.0510062  
H196     H      0.922990000000     0.309660000000     0.006710000000     0.035053   
H197     H      0.879660000000     0.097160000000     0.101040000000     0.0469209  
H198     H      0.798810000000     0.099060000000     0.067250000000     0.0431633  
H199     H      0.938590000000     0.150070000000     0.029490000000     0.0379776  
H200     H      0.892800000000     0.193700000000     0.965020000000     0.049264   
H201     H      0.811830000000     0.079830000000     0.989770000000     0.0465548  
H202     H      0.869650000000     0.145040000000     0.920080000000     0.0514713  
H203     H      0.856940000000     0.042590000000     0.068600000000     0.0444955  
H204     H      0.617400000000     0.095730000000     0.930310000000     0.049892   
H205     H      0.694760000000     0.127450000000     0.937220000000     0.0390722  
H206     H      0.594410000000     0.095130000000     0.119620000000     0.0433028  
H207     H      0.640000000000     0.162290000000     0.111290000000     0.045752   
H208     H      0.706150000000     0.096130000000     0.006800000000     0.0453295  
H209     H      0.690220000000     0.132290000000     0.109380000000     0.0440085  
H210     H      0.647290000000     0.048250000000     0.952920000000     0.0382676  
H211     H      0.674830000000     0.736370000000     0.795670000000     0.0479474  
H212     H      0.671940000000     0.694270000000     0.698230000000     0.0416853  
H213     H      0.807760000000     0.765250000000     0.817430000000     0.0426907  
H214     H      0.756520000000     0.794430000000     0.740490000000     0.0532893  
H215     H      0.719410000000     0.664150000000     0.719620000000     0.0458941  
H216     H      0.805060000000     0.773680000000     0.703430000000     0.0491688  
H217     H      0.679510000000     0.678250000000     0.816120000000     0.0438856  
H218     H      0.828070000000     0.761440000000     0.279110000000     0.0403896  
H219     H      0.797410000000     0.806800000000     0.199220000000     0.0420417  
H220     H      0.783030000000     0.684520000000     0.263410000000     0.0424569  
H221     H      0.708560000000     0.679350000000     0.203880000000     0.0467397  
H222     H      0.744250000000     0.808990000000     0.240930000000     0.0396167  
H223     H      0.690380000000     0.723910000000     0.252690000000     0.0443241  
H224     H      0.801900000000     0.804930000000     0.320170000000     0.0436602  
H225     H      0.583780000000     0.812380000000     0.494090000000     0.0422478  
H226     H      0.567990000000     0.871900000000     0.418650000000     0.0450833  
H227     H      0.624010000000     0.849890000000     0.596420000000     0.0393721  
H228     H      0.625650000000     0.931810000000     0.588510000000     0.0515871  
H229     H      0.628450000000     0.893470000000     0.414620000000     0.0454823  
H230     H      0.664360000000     0.934950000000     0.522880000000     0.0485232  
H231     H      0.619960000000     0.809760000000     0.425920000000     0.0388611  
H232     H      0.876330000000     0.877360000000     0.424900000000     0.0445136  
H233     H      0.796170000000     0.853790000000     0.437050000000     0.0412789  
H234     H      0.907860000000     0.871210000000     0.608810000000     0.0443123  
H235     H      0.858380000000     0.806630000000     0.599050000000     0.0460129  
H236     H      0.792250000000     0.883550000000     0.510180000000     0.0535477  
H237     H      0.810770000000     0.839400000000     0.608320000000     0.0519764  
H238     H      0.851260000000     0.927400000000     0.449390000000     0.0404895  
H239     H      0.882380000000     0.603790000000     0.597890000000     0.0509029  
H240     H      0.798110000000     0.607360000000     0.582970000000     0.0461996  
H241     H      0.931000000000     0.626110000000     0.436280000000     0.0454845  
H242     H      0.902150000000     0.676910000000     0.515560000000     0.0467481  
H243     H      0.799470000000     0.581600000000     0.506910000000     0.0539758  
H244     H      0.875410000000     0.685530000000     0.441540000000     0.0471255  
H245     H      0.854500000000     0.548070000000     0.577950000000     0.0505219  
H246     H      0.563850000000     0.628720000000     0.586000000000     0.0442393  
H247     H      0.643440000000     0.646340000000     0.588130000000     0.0503802  
H248     H      0.609060000000     0.604810000000     0.400490000000     0.0505345  
H249     H      0.651360000000     0.677240000000     0.394930000000     0.0502938  
H250     H      0.627110000000     0.701800000000     0.567640000000     0.0373014  
H251     H      0.611990000000     0.705130000000     0.441990000000     0.0458606  
H252     H      0.555950000000     0.672800000000     0.530530000000     0.0350408  
H253     H      0.642100000000     0.850290000000     0.093360000000     0.0416511  
H254     H      0.561550000000     0.858390000000     0.087690000000     0.0450687  
H255     H      0.680380000000     0.893640000000     0.984110000000     0.0444703  
H256     H      0.618200000000     0.913350000000     0.914680000000     0.0493811  
H257     H      0.552730000000     0.821290000000     0.021250000000     0.0419979  
H258     H      0.592170000000     0.854730000000     0.911900000000     0.0518493  
H259     H      0.613650000000     0.793990000000     0.080240000000     0.045458   
H260     H      0.928420000000     0.849750000000     0.070320000000     0.040296   
H261     H      0.847310000000     0.845000000000     0.085070000000     0.0496663  
H262     H      0.863410000000     0.893670000000     0.907010000000     0.0439452  
H263     H      0.817100000000     0.824740000000     0.896520000000     0.0511669  
H264     H      0.857540000000     0.787480000000     0.067740000000     0.0368428  
H265     H      0.860130000000     0.789680000000     0.924260000000     0.0510085  
H266     H      0.922990000000     0.809660000000     0.006710000000     0.0350435  
H267     H      0.879650000000     0.597170000000     0.101040000000     0.0468954  
H268     H      0.798810000000     0.599060000000     0.067250000000     0.0431276  
H269     H      0.938590000000     0.650070000000     0.029490000000     0.037976   
H270     H      0.892800000000     0.693700000000     0.965020000000     0.049255   
H271     H      0.811830000000     0.579830000000     0.989770000000     0.0464919  
H272     H      0.869650000000     0.645040000000     0.920080000000     0.0514363  
H273     H      0.856940000000     0.542590000000     0.068600000000     0.0444043  
H274     H      0.617400000000     0.595730000000     0.930310000000     0.0498571  
H275     H      0.694760000000     0.627450000000     0.937220000000     0.039052   
H276     H      0.594410000000     0.595130000000     0.119620000000     0.0432753  
H277     H      0.640000000000     0.662290000000     0.111290000000     0.0457404  
H278     H      0.706150000000     0.596130000000     0.006800000000     0.0452983  
H279     H      0.690220000000     0.632290000000     0.109380000000     0.0439955  
H280     H      0.647290000000     0.548250000000     0.952920000000     0.0381667  
N1       N      0.241370000000     0.224540000000     0.826880000000    -0.177616   
N2       N      0.239190000000     0.232550000000     0.691240000000    -0.175271   
N3       N      0.333070000000     0.164070000000     0.767460000000    -0.102931   
N4       N      0.265610000000     0.236380000000     0.325040000000    -0.177133   
N5       N      0.248210000000     0.246080000000     0.194930000000    -0.177744   
N6       N      0.208530000000     0.116430000000     0.347530000000    -0.0981054  
N7       N      0.154590000000     0.335830000000     0.509760000000    -0.17483    
N8       N      0.096060000000     0.408470000000     0.500010000000    -0.15945    
N9       N      0.232940000000     0.383470000000     0.637170000000    -0.099359   
N10      N      0.391080000000     0.397530000000     0.519230000000    -0.170439   
N11      N      0.327460000000     0.323840000000     0.514670000000    -0.220711   
N12      N      0.339360000000     0.449070000000     0.650950000000    -0.0982989  
N13      N      0.396710000000     0.081970000000     0.505770000000    -0.162069   
N14      N      0.331430000000     0.150100000000     0.511230000000    -0.168869   
N15      N      0.339360000000     0.079020000000     0.355080000000    -0.100085   
N16      N      0.075220000000     0.113330000000     0.487580000000    -0.16982    
N17      N      0.155590000000     0.165190000000     0.493510000000    -0.214383   
N18      N      0.018070000000     0.155630000000     0.352680000000    -0.104708   
N19      N      0.153270000000     0.324840000000     0.002730000000    -0.171303   
N20      N      0.084010000000     0.387490000000     0.998550000000    -0.158211   
N21      N      0.205500000000     0.345930000000     0.847140000000    -0.102202   
N22      N      0.406360000000     0.374950000000     0.980660000000    -0.171968   
N23      N      0.324690000000     0.322290000000     0.995220000000    -0.215554   
N24      N      0.443510000000     0.345890000000     0.825280000000    -0.101151   
N25      N      0.406810000000     0.083170000000     0.011620000000    -0.160789   
N26      N      0.339410000000     0.148170000000     0.009400000000    -0.172686   
N27      N      0.988540000000     0.135090000000     0.891710000000    -0.0983967  
N28      N      0.107420000000     0.074610000000     0.025580000000    -0.170116   
N29      N      0.165460000000     0.151340000000     0.020820000000    -0.220107   
N30      N      0.169950000000     0.020200000000     0.144220000000    -0.101787   
N31      N      0.241370000000     0.724540000000     0.826880000000    -0.177618   
N32      N      0.239190000000     0.732550000000     0.691240000000    -0.175274   
N33      N      0.333070000000     0.664070000000     0.767460000000    -0.102963   
N34      N      0.265610000000     0.736380000000     0.325040000000    -0.177126   
N35      N      0.248210000000     0.746080000000     0.194930000000    -0.177749   
N36      N      0.208530000000     0.616430000000     0.347530000000    -0.0981522  
N37      N      0.154590000000     0.835830000000     0.509760000000    -0.17485    
N38      N      0.096060000000     0.908460000000     0.500010000000    -0.159423   
N39      N      0.232940000000     0.883470000000     0.637170000000    -0.0993907  
N40      N      0.391080000000     0.897530000000     0.519230000000    -0.170453   
N41      N      0.327460000000     0.823840000000     0.514670000000    -0.220722   
N42      N      0.339360000000     0.949070000000     0.650950000000    -0.0983994  
N43      N      0.396710000000     0.581970000000     0.505770000000    -0.162117   
N44      N      0.331430000000     0.650100000000     0.511230000000    -0.168884   
N45      N      0.339360000000     0.579030000000     0.355080000000    -0.100161   
N46      N      0.075220000000     0.613330000000     0.487580000000    -0.169835   
N47      N      0.155590000000     0.665190000000     0.493510000000    -0.214395   
N48      N      0.018070000000     0.655640000000     0.352680000000    -0.104721   
N49      N      0.153270000000     0.824840000000     0.002730000000    -0.17131    
N50      N      0.084010000000     0.887490000000     0.998550000000    -0.158215   
N51      N      0.205500000000     0.845930000000     0.847140000000    -0.102219   
N52      N      0.406360000000     0.874950000000     0.980660000000    -0.171976   
N53      N      0.324690000000     0.822290000000     0.995220000000    -0.215561   
N54      N      0.443510000000     0.845890000000     0.825280000000    -0.101161   
N55      N      0.406820000000     0.583170000000     0.011620000000    -0.160863   
N56      N      0.339410000000     0.648180000000     0.009400000000    -0.172763   
N57      N      0.988540000000     0.635090000000     0.891710000000    -0.0984299  
N58      N      0.107420000000     0.574610000000     0.025580000000    -0.170161   
N59      N      0.165460000000     0.651340000000     0.020820000000    -0.22011    
N60      N      0.169950000000     0.520200000000     0.144220000000    -0.101913   
N61      N      0.741370000000     0.224540000000     0.826880000000    -0.177619   
N62      N      0.739180000000     0.232550000000     0.691240000000    -0.175274   
N63      N      0.833070000000     0.164070000000     0.767460000000    -0.102951   
N64      N      0.765610000000     0.236380000000     0.325040000000    -0.177135   
N65      N      0.748210000000     0.246080000000     0.194930000000    -0.17776    
N66      N      0.708530000000     0.116430000000     0.347530000000    -0.0981143  
N67      N      0.654590000000     0.335830000000     0.509760000000    -0.174854   
N68      N      0.596060000000     0.408470000000     0.500010000000    -0.15949    
N69      N      0.732940000000     0.383470000000     0.637170000000    -0.0993632  
N70      N      0.891080000000     0.397530000000     0.519230000000    -0.170451   
N71      N      0.827460000000     0.323840000000     0.514670000000    -0.220719   
N72      N      0.839360000000     0.449070000000     0.650950000000    -0.0983048  
N73      N      0.896710000000     0.081970000000     0.505770000000    -0.162078   
N74      N      0.831440000000     0.150100000000     0.511230000000    -0.168832   
N75      N      0.839360000000     0.079020000000     0.355080000000    -0.1001     
N76      N      0.575220000000     0.113330000000     0.487580000000    -0.169868   
N77      N      0.655590000000     0.165190000000     0.493510000000    -0.214395   
N78      N      0.518070000000     0.155630000000     0.352680000000    -0.104872   
N79      N      0.653270000000     0.324840000000     0.002730000000    -0.171283   
N80      N      0.584010000000     0.387490000000     0.998550000000    -0.158265   
N81      N      0.705500000000     0.345930000000     0.847140000000    -0.102214   
N82      N      0.906360000000     0.374950000000     0.980660000000    -0.171975   
N83      N      0.824690000000     0.322290000000     0.995220000000    -0.215557   
N84      N      0.943510000000     0.345890000000     0.825280000000    -0.101245   
N85      N      0.906810000000     0.083170000000     0.011620000000    -0.160795   
N86      N      0.839410000000     0.148170000000     0.009400000000    -0.17268    
N87      N      0.488540000000     0.135090000000     0.891710000000    -0.0982642  
N88      N      0.607420000000     0.074610000000     0.025580000000    -0.170164   
N89      N      0.665460000000     0.151340000000     0.020820000000    -0.220118   
N90      N      0.669950000000     0.020200000000     0.144220000000    -0.101795   
N91      N      0.741370000000     0.724540000000     0.826880000000    -0.17762    
N92      N      0.739180000000     0.732550000000     0.691240000000    -0.175277   
N93      N      0.833070000000     0.664070000000     0.767460000000    -0.102983   
N94      N      0.765610000000     0.736380000000     0.325040000000    -0.177138   
N95      N      0.748210000000     0.746080000000     0.194930000000    -0.177759   
N96      N      0.708530000000     0.616430000000     0.347530000000    -0.0981608  
N97      N      0.654590000000     0.835830000000     0.509760000000    -0.174874   
N98      N      0.596060000000     0.908460000000     0.500010000000    -0.159462   
N99      N      0.732940000000     0.883470000000     0.637170000000    -0.0993938  
N100     N      0.891070000000     0.897530000000     0.519230000000    -0.170413   
N101     N      0.827460000000     0.823840000000     0.514670000000    -0.220733   
N102     N      0.839360000000     0.949070000000     0.650950000000    -0.0984065  
N103     N      0.896710000000     0.581970000000     0.505770000000    -0.162116   
N104     N      0.831430000000     0.650100000000     0.511230000000    -0.16889    
N105     N      0.839360000000     0.579030000000     0.355080000000    -0.100178   
N106     N      0.575220000000     0.613330000000     0.487580000000    -0.169892   
N107     N      0.655590000000     0.665190000000     0.493510000000    -0.214404   
N108     N      0.518070000000     0.655640000000     0.352680000000    -0.104886   
N109     N      0.653270000000     0.824840000000     0.002730000000    -0.171319   
N110     N      0.584010000000     0.887490000000     0.998550000000    -0.15826    
N111     N      0.705500000000     0.845930000000     0.847140000000    -0.102231   
N112     N      0.906360000000     0.874950000000     0.980660000000    -0.171984   
N113     N      0.824690000000     0.822290000000     0.995220000000    -0.21556    
N114     N      0.943510000000     0.845890000000     0.825280000000    -0.101255   
N115     N      0.906820000000     0.583170000000     0.011620000000    -0.160866   
N116     N      0.839420000000     0.648180000000     0.009400000000    -0.172722   
N117     N      0.488540000000     0.635090000000     0.891710000000    -0.0982967  
N118     N      0.607420000000     0.574610000000     0.025580000000    -0.170205   
N119     N      0.665460000000     0.651340000000     0.020820000000    -0.220124   
N120     N      0.669950000000     0.520200000000     0.144220000000    -0.101929   
O1       O      0.043680000000     0.440930000000     0.949920000000    -0.383147   
O2       O      0.454540000000     0.039530000000     0.956480000000    -0.375106   
O3       O      0.052220000000     0.036810000000     0.963800000000    -0.407007   
O4       O      0.445110000000     0.440300000000     0.941400000000    -0.402351   
O5       O      0.442790000000     0.428910000000     0.045200000000    -0.41085    
O6       O      0.044840000000     0.031190000000     0.068080000000    -0.40097    
O7       O      0.444600000000     0.027190000000     0.059220000000    -0.382915   
O8       O      0.038760000000     0.433120000000     0.054080000000    -0.383877   
O9       O      0.041320000000     0.446850000000     0.449850000000    -0.383948   
O10      O      0.446520000000     0.040160000000     0.452180000000    -0.380884   
O11      O      0.043780000000     0.046390000000     0.443260000000    -0.39951    
O12      O      0.442240000000     0.442590000000     0.458570000000    -0.406816   
O13      O      0.453120000000     0.440620000000     0.562370000000    -0.403647   
O14      O      0.041630000000     0.054560000000     0.547440000000    -0.407212   
O15      O      0.443820000000     0.035700000000     0.556810000000    -0.381343   
O16      O      0.052580000000     0.457690000000     0.552590000000    -0.38285    
O17      O      0.275580000000     0.250520000000     0.918310000000    -0.470709   
O18      O      0.274190000000     0.271220000000     0.096870000000    -0.466917   
O19      O      0.321460000000     0.222500000000     0.005160000000    -0.451454   
O20      O      0.226990000000     0.304810000000     0.989220000000    -0.447194   
O21      O      0.172520000000     0.252530000000     0.024180000000    -0.442931   
O22      O      0.264930000000     0.166980000000     0.018740000000    -0.462208   
O23      O      0.220090000000     0.213110000000     0.104000000000    -0.479283   
O24      O      0.208270000000     0.209260000000     0.924280000000    -0.462024   
O25      O      0.274770000000     0.273550000000     0.420060000000    -0.470859   
O26      O      0.272050000000     0.262430000000     0.600280000000    -0.470863   
O27      O      0.314800000000     0.224500000000     0.506550000000    -0.446843   
O28      O      0.228080000000     0.314840000000     0.522380000000    -0.460113   
O29      O      0.173090000000     0.262750000000     0.491040000000    -0.465526   
O30      O      0.256730000000     0.169070000000     0.514840000000    -0.431183   
O31      O      0.210240000000     0.212460000000     0.593610000000    -0.468697   
O32      O      0.229200000000     0.209210000000     0.415890000000    -0.464723   
O33      O      0.043680000000     0.940930000000     0.949920000000    -0.38312    
O34      O      0.454540000000     0.539530000000     0.956480000000    -0.37544    
O35      O      0.052220000000     0.536810000000     0.963800000000    -0.407345   
O36      O      0.445110000000     0.940300000000     0.941400000000    -0.402324   
O37      O      0.442780000000     0.928910000000     0.045200000000    -0.410785   
O38      O      0.044840000000     0.531190000000     0.068080000000    -0.401306   
O39      O      0.444600000000     0.527190000000     0.059220000000    -0.383264   
O40      O      0.038760000000     0.933120000000     0.054080000000    -0.383855   
O41      O      0.041320000000     0.946850000000     0.449850000000    -0.383904   
O42      O      0.446520000000     0.540160000000     0.452180000000    -0.381214   
O43      O      0.043780000000     0.546380000000     0.443260000000    -0.399825   
O44      O      0.442240000000     0.942590000000     0.458570000000    -0.406779   
O45      O      0.453110000000     0.940630000000     0.562370000000    -0.403618   
O46      O      0.041630000000     0.554550000000     0.547440000000    -0.407528   
O47      O      0.443820000000     0.535700000000     0.556810000000    -0.38171    
O48      O      0.052580000000     0.957690000000     0.552590000000    -0.382829   
O49      O      0.275580000000     0.750520000000     0.918310000000    -0.470707   
O50      O      0.274190000000     0.771220000000     0.096870000000    -0.466921   
O51      O      0.321460000000     0.722500000000     0.005160000000    -0.451363   
O52      O      0.226990000000     0.804810000000     0.989220000000    -0.447203   
O53      O      0.172520000000     0.752530000000     0.024180000000    -0.442933   
O54      O      0.264930000000     0.666980000000     0.018740000000    -0.462227   
O55      O      0.220090000000     0.713110000000     0.104000000000    -0.479285   
O56      O      0.208270000000     0.709260000000     0.924280000000    -0.462026   
O57      O      0.274770000000     0.773550000000     0.420060000000    -0.470875   
O58      O      0.272050000000     0.762430000000     0.600280000000    -0.470873   
O59      O      0.314800000000     0.724500000000     0.506550000000    -0.446862   
O60      O      0.228080000000     0.814830000000     0.522380000000    -0.460218   
O61      O      0.173090000000     0.762750000000     0.491040000000    -0.465533   
O62      O      0.256730000000     0.669070000000     0.514840000000    -0.431204   
O63      O      0.210240000000     0.712460000000     0.593610000000    -0.468701   
O64      O      0.229200000000     0.709210000000     0.415890000000    -0.464727   
O65      O      0.543680000000     0.440930000000     0.949920000000    -0.383513   
O66      O      0.954540000000     0.039530000000     0.956480000000    -0.375064   
O67      O      0.552220000000     0.036810000000     0.963800000000    -0.40739    
O68      O      0.945110000000     0.440300000000     0.941400000000    -0.402292   
O69      O      0.942790000000     0.428910000000     0.045200000000    -0.4108     
O70      O      0.544840000000     0.031190000000     0.068080000000    -0.401346   
O71      O      0.944600000000     0.027190000000     0.059220000000    -0.382879   
O72      O      0.538760000000     0.433120000000     0.054080000000    -0.384236   
O73      O      0.541320000000     0.446850000000     0.449850000000    -0.384308   
O74      O      0.946520000000     0.040160000000     0.452180000000    -0.380867   
O75      O      0.543780000000     0.046390000000     0.443260000000    -0.399863   
O76      O      0.942240000000     0.442590000000     0.458570000000    -0.406791   
O77      O      0.953110000000     0.440620000000     0.562370000000    -0.403626   
O78      O      0.541630000000     0.054560000000     0.547440000000    -0.407579   
O79      O      0.943820000000     0.035700000000     0.556810000000    -0.381315   
O80      O      0.552580000000     0.457690000000     0.552590000000    -0.383196   
O81      O      0.775580000000     0.250520000000     0.918310000000    -0.470719   
O82      O      0.774190000000     0.271220000000     0.096870000000    -0.466928   
O83      O      0.821460000000     0.222500000000     0.005160000000    -0.451473   
O84      O      0.727000000000     0.304810000000     0.989220000000    -0.447151   
O85      O      0.672520000000     0.252530000000     0.024180000000    -0.44291    
O86      O      0.764930000000     0.166980000000     0.018740000000    -0.462203   
O87      O      0.720090000000     0.213110000000     0.104000000000    -0.479286   
O88      O      0.708270000000     0.209260000000     0.924280000000    -0.462036   
O89      O      0.774770000000     0.273550000000     0.420060000000    -0.47086    
O90      O      0.772050000000     0.262430000000     0.600280000000    -0.470806   
O91      O      0.814800000000     0.224500000000     0.506550000000    -0.446842   
O92      O      0.728080000000     0.314840000000     0.522380000000    -0.460122   
O93      O      0.673100000000     0.262750000000     0.491040000000    -0.465629   
O94      O      0.756730000000     0.169070000000     0.514840000000    -0.431184   
O95      O      0.710240000000     0.212460000000     0.593610000000    -0.468766   
O96      O      0.729200000000     0.209210000000     0.415890000000    -0.464735   
O97      O      0.543680000000     0.940930000000     0.949920000000    -0.383485   
O98      O      0.954540000000     0.539530000000     0.956480000000    -0.375397   
O99      O      0.552220000000     0.536810000000     0.963800000000    -0.407728   
O100     O      0.945110000000     0.940300000000     0.941400000000    -0.402265   
O101     O      0.942780000000     0.928910000000     0.045200000000    -0.410735   
O102     O      0.544840000000     0.531190000000     0.068080000000    -0.401682   
O103     O      0.944600000000     0.527190000000     0.059220000000    -0.383228   
O104     O      0.538760000000     0.933120000000     0.054080000000    -0.384213   
O105     O      0.541320000000     0.946850000000     0.449850000000    -0.384278   
O106     O      0.946520000000     0.540160000000     0.452180000000    -0.381194   
O107     O      0.543780000000     0.546380000000     0.443260000000    -0.400179   
O108     O      0.942240000000     0.942590000000     0.458570000000    -0.406712   
O109     O      0.953110000000     0.940630000000     0.562370000000    -0.403571   
O110     O      0.541630000000     0.554550000000     0.547440000000    -0.407913   
O111     O      0.943820000000     0.535700000000     0.556810000000    -0.381663   
O112     O      0.552590000000     0.957690000000     0.552590000000    -0.383148   
O113     O      0.775580000000     0.750520000000     0.918310000000    -0.470708   
O114     O      0.774190000000     0.771220000000     0.096870000000    -0.466924   
O115     O      0.821460000000     0.722500000000     0.005160000000    -0.451353   
O116     O      0.726990000000     0.804810000000     0.989220000000    -0.447201   
O117     O      0.672520000000     0.752530000000     0.024180000000    -0.442956   
O118     O      0.764930000000     0.666980000000     0.018740000000    -0.46221    
O119     O      0.720090000000     0.713110000000     0.104000000000    -0.479288   
O120     O      0.708270000000     0.709260000000     0.924280000000    -0.46204    
O121     O      0.774770000000     0.773550000000     0.420060000000    -0.47088    
O122     O      0.772050000000     0.762430000000     0.600280000000    -0.470878   
O123     O      0.814800000000     0.724500000000     0.506550000000    -0.446883   
O124     O      0.728080000000     0.814830000000     0.522380000000    -0.460226   
O125     O      0.673100000000     0.762750000000     0.491040000000    -0.465634   
O126     O      0.756730000000     0.669070000000     0.514840000000    -0.431221   
O127     O      0.710240000000     0.712460000000     0.593610000000    -0.468715   
O128     O      0.729200000000     0.709210000000     0.415890000000    -0.464737   


