data_structure

_audit_creation_method RASPA-1.0
_audit_creation_date 2023-5-22
_audit_author_name 'Poobodin Mano'

_cell_length_a    42.4625
_cell_length_b    42.892
_cell_length_c    42.6775
_cell_angle_alpha 90
_cell_angle_beta  90
_cell_angle_gamma 90
_cell_volume      77728.6

_symmetry_cell_setting          triclinic
_symmetry_space_group_name_Hall 'P 1'
_symmetry_space_group_name_H-M  'P 1'
_symmetry_Int_Tables_number     1

_symmetry_equiv_pos_as_xyz 'x,y,z'

loop_
_atom_site_label
_atom_site_type_symbol
_atom_site_fract_x
_atom_site_fract_y
_atom_site_fract_z
_atom_site_charge
C1       C      0.072600000000     0.000400000000     0.994340000000     0.40247    
C2       C      0.448350000000     0.502230000000     0.003810000000     0.397977   
C3       C      0.011710000000     0.063110000000     0.999160000000     0.406429   
C4       C      0.509750000000     0.439430000000     0.998710000000     0.40454    
C5       C      0.066550000000     0.010650000000     0.262170000000     0.39787    
C6       C      0.442360000000     0.513030000000     0.245510000000     0.398526   
C7       C      0.005710000000     0.073940000000     0.254650000000     0.397593   
C8       C      0.502690000000     0.450010000000     0.253260000000     0.400063   
C9       C      0.507130000000     0.240310000000     0.445730000000     0.400903   
C10      C      0.499880000000     0.253930000000     0.069540000000     0.400242   
C11      C      0.499490000000     0.186410000000     0.514140000000     0.403243   
C12      C      0.507140000000     0.309380000000     0.001380000000     0.397426   
C13      C      0.499830000000     0.270600000000     0.195550000000     0.400806   
C14      C      0.507210000000     0.256180000000     0.319260000000     0.399917   
C15      C      0.499160000000     0.201130000000     0.250330000000     0.399822   
C16      C      0.508260000000     0.324180000000     0.264030000000     0.400987   
C17      C      0.248080000000     0.490660000000     0.063000000000     0.398682   
C18      C      0.272870000000     0.490540000000     0.440550000000     0.399537   
C19      C      0.321960000000     0.490010000000     0.014260000000     0.40165    
C20      C      0.199700000000     0.489530000000     0.488860000000     0.402921   
C21      C      0.254380000000     0.492730000000     0.315460000000     0.398775   
C22      C      0.255610000000     0.492850000000     0.190530000000     0.397952   
C23      C      0.317380000000     0.493950000000     0.253850000000     0.398815   
C24      C      0.191920000000     0.493130000000     0.252400000000     0.398194   
C25      C      0.280530000000     0.020180000000     0.391070000000    -0.0129748  
C26      C      0.279060000000     0.461960000000     0.390270000000    -0.0114382  
C27      C      0.254720000000     0.021450000000     0.366000000000    -0.0132528  
C28      C      0.253300000000     0.462760000000     0.365220000000    -0.0121456  
C29      C      0.236740000000     0.020270000000     0.111810000000    -0.0129884  
C30      C      0.238370000000     0.462030000000     0.112700000000    -0.011495   
C31      C      0.258800000000     0.021610000000     0.140180000000    -0.0132917  
C32      C      0.260360000000     0.462880000000     0.141070000000    -0.0122264  
C33      C      0.038380000000     0.232330000000     0.396830000000    -0.0122984  
C34      C      0.479620000000     0.231720000000     0.395460000000    -0.0107566  
C35      C      0.038880000000     0.254370000000     0.368310000000    -0.0132802  
C36      C      0.479430000000     0.256340000000     0.369950000000    -0.0112784  
C37      C      0.468490000000     0.278110000000     0.146660000000    -0.0120664  
C38      C      0.027240000000     0.279430000000     0.145270000000    -0.0129441  
C39      C      0.468290000000     0.255460000000     0.118640000000    -0.0125701  
C40      C      0.027760000000     0.254370000000     0.120200000000    -0.0133774  
C41      C      0.143420000000     0.515630000000     0.230460000000    -0.0105793  
C42      C      0.140420000000     0.471500000000     0.269360000000    -0.0116308  
C43      C      0.117980000000     0.033110000000     0.248410000000    -0.00937375 
C44      C      0.114480000000     0.489270000000     0.287440000000    -0.0118972  
C45      C      0.365330000000     0.016220000000     0.277130000000    -0.0118027  
C46      C      0.369200000000     0.473690000000     0.236510000000    -0.0112623  
C47      C      0.390740000000     0.034700000000     0.260130000000    -0.00949496 
C48      C      0.394670000000     0.492680000000     0.219140000000    -0.0121077  
C49      C      0.488930000000     0.373350000000     0.287200000000    -0.0105454  
C50      C      0.036120000000     0.373070000000     0.251480000000    -0.0112912  
C51      C      0.475960000000     0.401860000000     0.270040000000    -0.0110913  
C52      C      0.021810000000     0.399850000000     0.232470000000    -0.01145    
C53      C      0.489180000000     0.123280000000     0.279110000000    -0.010807   
C54      C      0.029300000000     0.122670000000     0.235400000000    -0.00944651 
C55      C      0.473240000000     0.151580000000     0.264020000000    -0.0107062  
C56      C      0.015650000000     0.153290000000     0.222830000000    -0.0183226  
C57      C      0.121770000000     0.023070000000     0.974470000000    -0.0127372  
C58      C      0.121820000000     0.478180000000     0.013250000000    -0.0166398  
C59      C      0.153140000000     0.010980000000     0.461200000000    -0.0140784  
C60      C      0.148780000000     0.463390000000     0.495280000000    -0.0109176  
C61      C      0.399560000000     0.025080000000     0.024800000000    -0.0105236  
C62      C      0.398450000000     0.480570000000     0.485710000000    -0.00932733 
C63      C      0.369450000000     0.012020000000     0.039910000000    -0.0150639  
C64      C      0.372950000000     0.464860000000     0.505060000000    -0.0109913  
C65      C      0.484090000000     0.358510000000     0.482560000000    -0.0112425  
C66      C      0.034980000000     0.358040000000     0.014040000000    -0.0191137  
C67      C      0.496300000000     0.390470000000     0.471860000000    -0.0115422  
C68      C      0.023780000000     0.390310000000     0.024860000000    -0.0120858  
C69      C      0.035560000000     0.111750000000     0.018630000000    -0.0126996  
C70      C      0.491290000000     0.112970000000     0.479120000000    -0.0110831  
C71      C      0.019360000000     0.137490000000     0.037300000000    -0.0120141  
C72      C      0.474010000000     0.137030000000     0.499310000000    -0.0111119  
C73      C      0.072600000000     0.000400000000     0.494340000000     0.398103   
C74      C      0.448350000000     0.502230000000     0.503810000000     0.402342   
C75      C      0.011710000000     0.063110000000     0.499160000000     0.401616   
C76      C      0.509750000000     0.439430000000     0.498710000000     0.399675   
C77      C      0.066550000000     0.010650000000     0.762170000000     0.397618   
C78      C      0.442360000000     0.513030000000     0.745510000000     0.398518   
C79      C      0.005710000000     0.073940000000     0.754650000000     0.397582   
C80      C      0.502690000000     0.450010000000     0.753260000000     0.400051   
C81      C      0.507130000000     0.240310000000     0.945730000000     0.400445   
C82      C      0.499880000000     0.253930000000     0.569540000000     0.400446   
C83      C      0.499490000000     0.186410000000     0.014140000000     0.402868   
C84      C      0.507140000000     0.309380000000     0.501380000000     0.401198   
C85      C      0.499830000000     0.270600000000     0.695550000000     0.400797   
C86      C      0.507210000000     0.256180000000     0.819260000000     0.39992    
C87      C      0.499160000000     0.201130000000     0.750330000000     0.399815   
C88      C      0.508260000000     0.324180000000     0.764030000000     0.400987   
C89      C      0.248080000000     0.490660000000     0.563000000000     0.399154   
C90      C      0.272870000000     0.490540000000     0.940550000000     0.39883    
C91      C      0.321960000000     0.490010000000     0.514260000000     0.402696   
C92      C      0.199700000000     0.489530000000     0.988860000000     0.402808   
C93      C      0.254380000000     0.492730000000     0.815460000000     0.398775   
C94      C      0.255610000000     0.492850000000     0.690540000000     0.398042   
C95      C      0.317380000000     0.493950000000     0.753850000000     0.398805   
C96      C      0.191920000000     0.493130000000     0.752400000000     0.398189   
C97      C      0.280530000000     0.020180000000     0.891070000000    -0.0130253  
C98      C      0.279060000000     0.461960000000     0.890270000000    -0.0114962  
C99      C      0.254720000000     0.021450000000     0.866000000000    -0.0132282  
C100     C      0.253300000000     0.462760000000     0.865220000000    -0.0121376  
C101     C      0.236740000000     0.020270000000     0.611810000000    -0.0129877  
C102     C      0.238370000000     0.462030000000     0.612700000000    -0.0115037  
C103     C      0.258800000000     0.021610000000     0.640180000000    -0.0133156  
C104     C      0.260360000000     0.462880000000     0.641070000000    -0.0122357  
C105     C      0.038380000000     0.232330000000     0.896830000000    -0.0123259  
C106     C      0.479620000000     0.231720000000     0.895460000000    -0.0107818  
C107     C      0.038880000000     0.254370000000     0.868310000000    -0.0132694  
C108     C      0.479430000000     0.256340000000     0.869950000000    -0.011276   
C109     C      0.468490000000     0.278110000000     0.646660000000    -0.0120736  
C110     C      0.027240000000     0.279430000000     0.645270000000    -0.0129453  
C111     C      0.468290000000     0.255460000000     0.618640000000    -0.0125735  
C112     C      0.027760000000     0.254370000000     0.620200000000    -0.0133903  
C113     C      0.143420000000     0.515630000000     0.730460000000    -0.0105856  
C114     C      0.140420000000     0.471500000000     0.769360000000    -0.0116459  
C115     C      0.117980000000     0.033110000000     0.748410000000    -0.00939251 
C116     C      0.114480000000     0.489270000000     0.787440000000    -0.0118796  
C117     C      0.365330000000     0.016220000000     0.777130000000    -0.0118591  
C118     C      0.369200000000     0.473690000000     0.736510000000    -0.0113164  
C119     C      0.390740000000     0.034700000000     0.760130000000    -0.0094855  
C120     C      0.394670000000     0.492680000000     0.719150000000    -0.0120069  
C121     C      0.488930000000     0.373350000000     0.787200000000    -0.0104986  
C122     C      0.036120000000     0.373070000000     0.751480000000    -0.0113001  
C123     C      0.475960000000     0.401860000000     0.770040000000    -0.011114   
C124     C      0.021810000000     0.399850000000     0.732470000000    -0.0114596  
C125     C      0.489180000000     0.123280000000     0.779110000000    -0.0107973  
C126     C      0.029300000000     0.122670000000     0.735400000000    -0.00945406 
C127     C      0.473240000000     0.151580000000     0.764020000000    -0.0107192  
C128     C      0.015650000000     0.153290000000     0.722830000000    -0.0183412  
C129     C      0.121770000000     0.023070000000     0.474470000000    -0.0125674  
C130     C      0.121820000000     0.478180000000     0.513250000000    -0.00910951 
C131     C      0.153140000000     0.010980000000     0.961200000000    -0.0135533  
C132     C      0.148780000000     0.463390000000     0.995280000000    -0.00216809 
C133     C      0.399560000000     0.025080000000     0.524800000000    -0.0106937  
C134     C      0.398450000000     0.480570000000     0.985710000000    -0.00175657 
C135     C      0.369450000000     0.012020000000     0.539910000000    -0.0145258  
C136     C      0.372950000000     0.464860000000     0.005060000000    -0.0197438  
C137     C      0.484090000000     0.358510000000     0.982560000000    -0.0114264  
C138     C      0.034980000000     0.358040000000     0.514040000000    -0.0121483  
C139     C      0.496300000000     0.390470000000     0.971860000000    -0.0109053  
C140     C      0.023780000000     0.390310000000     0.524860000000    -0.0113009  
C141     C      0.035560000000     0.111750000000     0.518630000000    -0.00999013 
C142     C      0.491290000000     0.112970000000     0.979120000000    -0.0124914  
C143     C      0.019360000000     0.137490000000     0.537300000000    -0.0126108  
C144     C      0.474010000000     0.137030000000     0.999310000000    -0.00363107 
C145     C      0.072600000000     0.500400000000     0.994340000000     0.406861   
C146     C      0.448350000000     0.002230000000     0.003810000000     0.395288   
C147     C      0.011710000000     0.563110000000     0.999160000000     0.406602   
C148     C      0.509750000000     0.939430000000     0.998710000000     0.404114   
C149     C      0.066550000000     0.510650000000     0.262170000000     0.398064   
C150     C      0.442360000000     0.013030000000     0.245510000000     0.398373   
C151     C      0.005710000000     0.573940000000     0.254650000000     0.397683   
C152     C      0.502690000000     0.950010000000     0.253260000000     0.399818   
C153     C      0.507130000000     0.740310000000     0.445730000000     0.400896   
C154     C      0.499880000000     0.753930000000     0.069540000000     0.400229   
C155     C      0.499490000000     0.686410000000     0.514140000000     0.403217   
C156     C      0.507140000000     0.809380000000     0.001380000000     0.397454   
C157     C      0.499830000000     0.770600000000     0.195550000000     0.400831   
C158     C      0.507210000000     0.756180000000     0.319260000000     0.399915   
C159     C      0.499160000000     0.701130000000     0.250330000000     0.399815   
C160     C      0.508260000000     0.824180000000     0.264030000000     0.40099    
C161     C      0.248080000000     0.990660000000     0.063000000000     0.401072   
C162     C      0.272870000000     0.990540000000     0.440550000000     0.401936   
C163     C      0.321960000000     0.990010000000     0.014260000000     0.403924   
C164     C      0.199700000000     0.989530000000     0.488860000000     0.405232   
C165     C      0.254380000000     0.992730000000     0.315460000000     0.401211   
C166     C      0.255610000000     0.992850000000     0.190530000000     0.400618   
C167     C      0.317380000000     0.993950000000     0.253850000000     0.401234   
C168     C      0.191920000000     0.993130000000     0.252400000000     0.400612   
C169     C      0.280530000000     0.520180000000     0.391070000000    -0.0118496  
C170     C      0.279060000000     0.961960000000     0.390270000000    -0.0112756  
C171     C      0.254720000000     0.521450000000     0.366000000000    -0.0121352  
C172     C      0.253300000000     0.962760000000     0.365220000000    -0.011958   
C173     C      0.236740000000     0.520270000000     0.111810000000    -0.011839   
C174     C      0.238370000000     0.962020000000     0.112700000000    -0.0114276  
C175     C      0.258800000000     0.521610000000     0.140180000000    -0.0122545  
C176     C      0.260360000000     0.962880000000     0.141070000000    -0.0120433  
C177     C      0.038380000000     0.732320000000     0.396830000000    -0.0123407  
C178     C      0.479620000000     0.731720000000     0.395460000000    -0.0107629  
C179     C      0.038880000000     0.754370000000     0.368310000000    -0.0132723  
C180     C      0.479430000000     0.756340000000     0.369950000000    -0.0112831  
C181     C      0.468490000000     0.778110000000     0.146660000000    -0.0120763  
C182     C      0.027240000000     0.779430000000     0.145270000000    -0.0129451  
C183     C      0.468290000000     0.755460000000     0.118640000000    -0.0125711  
C184     C      0.027760000000     0.754370000000     0.120200000000    -0.0133715  
C185     C      0.143420000000     0.015630000000     0.230460000000    -0.0120402  
C186     C      0.140420000000     0.971500000000     0.269360000000    -0.0123278  
C187     C      0.117980000000     0.533110000000     0.248410000000    -0.00969508 
C188     C      0.114480000000     0.989260000000     0.287440000000    -0.00802078 
C189     C      0.365330000000     0.516220000000     0.277130000000    -0.0103426  
C190     C      0.369200000000     0.973690000000     0.236510000000    -0.0120057  
C191     C      0.390740000000     0.534700000000     0.260130000000    -0.00981862 
C192     C      0.394670000000     0.992680000000     0.219140000000    -0.00813558 
C193     C      0.488930000000     0.873350000000     0.287200000000    -0.0105429  
C194     C      0.036120000000     0.873070000000     0.251480000000    -0.0112978  
C195     C      0.475960000000     0.901860000000     0.270040000000    -0.0111048  
C196     C      0.021810000000     0.899850000000     0.232470000000    -0.0114592  
C197     C      0.489180000000     0.623280000000     0.279110000000    -0.01081    
C198     C      0.029300000000     0.622670000000     0.235400000000    -0.00945359 
C199     C      0.473240000000     0.651580000000     0.264020000000    -0.0107099  
C200     C      0.015650000000     0.653290000000     0.222830000000    -0.0183077  
C201     C      0.121770000000     0.523060000000     0.974470000000    -0.0118403  
C202     C      0.121820000000     0.978180000000     0.013250000000    -0.0167464  
C203     C      0.153140000000     0.510980000000     0.461200000000    -0.0106779  
C204     C      0.148780000000     0.963390000000     0.495280000000    -0.0107242  
C205     C      0.399560000000     0.525080000000     0.024800000000    -0.0112503  
C206     C      0.398450000000     0.980570000000     0.485710000000    -0.00790327 
C207     C      0.369450000000     0.512020000000     0.039910000000    -0.0112456  
C208     C      0.372950000000     0.964860000000     0.505060000000    -0.0112175  
C209     C      0.484090000000     0.858510000000     0.482560000000    -0.0112241  
C210     C      0.034980000000     0.858040000000     0.014040000000    -0.0190876  
C211     C      0.496300000000     0.890470000000     0.471860000000    -0.0115794  
C212     C      0.023780000000     0.890310000000     0.024860000000    -0.0121227  
C213     C      0.035560000000     0.611750000000     0.018630000000    -0.0127257  
C214     C      0.491290000000     0.612970000000     0.479120000000    -0.0110877  
C215     C      0.019360000000     0.637500000000     0.037300000000    -0.0119853  
C216     C      0.474010000000     0.637030000000     0.499310000000    -0.0111144  
C217     C      0.072600000000     0.500400000000     0.494340000000     0.402496   
C218     C      0.448350000000     0.002230000000     0.503810000000     0.399627   
C219     C      0.011710000000     0.563110000000     0.499160000000     0.401777   
C220     C      0.509750000000     0.939430000000     0.498710000000     0.399259   
C221     C      0.066550000000     0.510650000000     0.762170000000     0.397813   
C222     C      0.442360000000     0.013030000000     0.745510000000     0.398364   
C223     C      0.005710000000     0.573940000000     0.754650000000     0.397673   
C224     C      0.502690000000     0.950010000000     0.753260000000     0.399806   
C225     C      0.507130000000     0.740310000000     0.945730000000     0.400439   
C226     C      0.499880000000     0.753930000000     0.569540000000     0.400432   
C227     C      0.499490000000     0.686410000000     0.014140000000     0.402841   
C228     C      0.507140000000     0.809380000000     0.501380000000     0.401223   
C229     C      0.499830000000     0.770600000000     0.695550000000     0.400822   
C230     C      0.507210000000     0.756180000000     0.819260000000     0.399918   
C231     C      0.499160000000     0.701130000000     0.750330000000     0.399808   
C232     C      0.508260000000     0.824180000000     0.764030000000     0.400989   
C233     C      0.248080000000     0.990660000000     0.563000000000     0.401551   
C234     C      0.272870000000     0.990540000000     0.940550000000     0.401225   
C235     C      0.321960000000     0.990010000000     0.514260000000     0.404977   
C236     C      0.199700000000     0.989530000000     0.988860000000     0.405111   
C237     C      0.254380000000     0.992730000000     0.815460000000     0.401209   
C238     C      0.255610000000     0.992850000000     0.690540000000     0.400712   
C239     C      0.317380000000     0.993950000000     0.753850000000     0.401225   
C240     C      0.191920000000     0.993130000000     0.752400000000     0.400608   
C241     C      0.280530000000     0.520180000000     0.891070000000    -0.011902   
C242     C      0.279060000000     0.961960000000     0.890270000000    -0.0113338  
C243     C      0.254720000000     0.521450000000     0.866000000000    -0.012111   
C244     C      0.253300000000     0.962760000000     0.865220000000    -0.0119502  
C245     C      0.236740000000     0.520270000000     0.611810000000    -0.0118343  
C246     C      0.238370000000     0.962020000000     0.612700000000    -0.011436   
C247     C      0.258800000000     0.521610000000     0.640180000000    -0.0122759  
C248     C      0.260360000000     0.962880000000     0.641070000000    -0.0120522  
C249     C      0.038380000000     0.732320000000     0.896830000000    -0.0123683  
C250     C      0.479620000000     0.731720000000     0.895460000000    -0.0107881  
C251     C      0.038880000000     0.754370000000     0.868310000000    -0.0132616  
C252     C      0.479430000000     0.756340000000     0.869950000000    -0.0112807  
C253     C      0.468490000000     0.778110000000     0.646660000000    -0.0120835  
C254     C      0.027240000000     0.779430000000     0.645270000000    -0.0129463  
C255     C      0.468290000000     0.755460000000     0.618640000000    -0.0125746  
C256     C      0.027760000000     0.754370000000     0.620200000000    -0.0133844  
C257     C      0.143420000000     0.015630000000     0.730460000000    -0.0120474  
C258     C      0.140420000000     0.971500000000     0.769360000000    -0.0123423  
C259     C      0.117980000000     0.533110000000     0.748410000000    -0.00971376 
C260     C      0.114480000000     0.989260000000     0.787440000000    -0.00800551 
C261     C      0.365330000000     0.516220000000     0.777130000000    -0.0103979  
C262     C      0.369200000000     0.973690000000     0.736510000000    -0.0120608  
C263     C      0.390740000000     0.534700000000     0.760130000000    -0.00980937 
C264     C      0.394670000000     0.992680000000     0.719150000000    -0.0080328  
C265     C      0.488930000000     0.873350000000     0.787200000000    -0.0104959  
C266     C      0.036120000000     0.873070000000     0.751480000000    -0.0113067  
C267     C      0.475960000000     0.901860000000     0.770040000000    -0.0111275  
C268     C      0.021810000000     0.899850000000     0.732470000000    -0.0114688  
C269     C      0.489180000000     0.623280000000     0.779110000000    -0.0108003  
C270     C      0.029300000000     0.622670000000     0.735400000000    -0.00946116 
C271     C      0.473240000000     0.651580000000     0.764020000000    -0.0107229  
C272     C      0.015650000000     0.653290000000     0.722830000000    -0.0183264  
C273     C      0.121770000000     0.523060000000     0.474470000000    -0.0116675  
C274     C      0.121820000000     0.978180000000     0.513250000000    -0.0092349  
C275     C      0.153140000000     0.510980000000     0.961200000000    -0.0101594  
C276     C      0.148780000000     0.963390000000     0.995280000000    -0.00199632 
C277     C      0.399560000000     0.525080000000     0.524800000000    -0.0114235  
C278     C      0.398450000000     0.980570000000     0.985710000000    -0.000358466
C279     C      0.369450000000     0.512020000000     0.539910000000    -0.0106898  
C280     C      0.372950000000     0.964860000000     0.005060000000    -0.0199494  
C281     C      0.484090000000     0.858510000000     0.982560000000    -0.0114079  
C282     C      0.034980000000     0.858040000000     0.514040000000    -0.0121278  
C283     C      0.496300000000     0.890470000000     0.971860000000    -0.0109433  
C284     C      0.023780000000     0.890310000000     0.524860000000    -0.01134    
C285     C      0.035560000000     0.611750000000     0.518630000000    -0.0100106  
C286     C      0.491290000000     0.612970000000     0.979120000000    -0.0124982  
C287     C      0.019360000000     0.637500000000     0.537300000000    -0.0125832  
C288     C      0.474010000000     0.637030000000     0.999310000000    -0.00362145 
C289     C      0.572600000000     0.000400000000     0.994340000000     0.402684   
C290     C      0.948350000000     0.502230000000     0.003810000000     0.397472   
C291     C      0.511710000000     0.063110000000     0.999160000000     0.406791   
C292     C      0.009750000000     0.439430000000     0.998710000000     0.404174   
C293     C      0.566550000000     0.010650000000     0.262170000000     0.39813    
C294     C      0.942360000000     0.513030000000     0.245510000000     0.397916   
C295     C      0.505710000000     0.073940000000     0.254650000000     0.398044   
C296     C      0.002690000000     0.450010000000     0.253260000000     0.394886   
C297     C      0.007130000000     0.240310000000     0.445730000000     0.396305   
C298     C      0.999880000000     0.253930000000     0.069540000000     0.404974   
C299     C      0.999490000000     0.186410000000     0.514140000000     0.407956   
C300     C      0.007140000000     0.309380000000     0.001380000000     0.392598   
C301     C      0.999830000000     0.270600000000     0.195550000000     0.40553    
C302     C      0.007210000000     0.256180000000     0.319260000000     0.395329   
C303     C      0.999160000000     0.201130000000     0.250330000000     0.404294   
C304     C      0.008260000000     0.324180000000     0.264030000000     0.396604   
C305     C      0.748080000000     0.490660000000     0.063000000000     0.398678   
C306     C      0.772870000000     0.490540000000     0.440550000000     0.399529   
C307     C      0.821960000000     0.490010000000     0.014260000000     0.401656   
C308     C      0.699700000000     0.489530000000     0.488860000000     0.402911   
C309     C      0.754380000000     0.492730000000     0.315460000000     0.398772   
C310     C      0.755610000000     0.492850000000     0.190530000000     0.397949   
C311     C      0.817380000000     0.493950000000     0.253850000000     0.398819   
C312     C      0.691920000000     0.493130000000     0.252400000000     0.398184   
C313     C      0.780530000000     0.020180000000     0.391070000000    -0.0129869  
C314     C      0.779060000000     0.461960000000     0.390270000000    -0.0114609  
C315     C      0.754720000000     0.021450000000     0.366000000000    -0.0132475  
C316     C      0.753300000000     0.462760000000     0.365220000000    -0.0121482  
C317     C      0.736740000000     0.020270000000     0.111810000000    -0.0129932  
C318     C      0.738370000000     0.462030000000     0.112700000000    -0.0114856  
C319     C      0.758800000000     0.021610000000     0.140180000000    -0.0132631  
C320     C      0.760360000000     0.462880000000     0.141070000000    -0.0122827  
C321     C      0.538380000000     0.232330000000     0.396830000000    -0.0119303  
C322     C      0.979620000000     0.231720000000     0.395460000000    -0.00859991 
C323     C      0.538880000000     0.254370000000     0.368310000000    -0.0129032  
C324     C      0.979430000000     0.256340000000     0.369950000000    -0.00909837 
C325     C      0.968490000000     0.278110000000     0.146660000000    -0.0116772  
C326     C      0.527240000000     0.279430000000     0.145270000000    -0.0107776  
C327     C      0.968290000000     0.255460000000     0.118640000000    -0.0122682  
C328     C      0.527760000000     0.254370000000     0.120200000000    -0.0113085  
C329     C      0.643420000000     0.515630000000     0.230460000000    -0.0105935  
C330     C      0.640420000000     0.471500000000     0.269360000000    -0.0116351  
C331     C      0.617980000000     0.033110000000     0.248410000000    -0.00936952 
C332     C      0.614480000000     0.489270000000     0.287440000000    -0.0119033  
C333     C      0.865330000000     0.016220000000     0.277130000000    -0.0117907  
C334     C      0.869200000000     0.473690000000     0.236510000000    -0.0112345  
C335     C      0.890740000000     0.034700000000     0.260130000000    -0.00953439 
C336     C      0.894670000000     0.492680000000     0.219140000000    -0.0121673  
C337     C      0.988940000000     0.373350000000     0.287200000000    -0.00361855 
C338     C      0.536120000000     0.373070000000     0.251480000000    -0.0110858  
C339     C      0.975960000000     0.401860000000     0.270040000000    -0.0102329  
C340     C      0.521820000000     0.399850000000     0.232470000000    -0.0111162  
C341     C      0.989180000000     0.123280000000     0.279110000000    -0.00302441 
C342     C      0.529300000000     0.122670000000     0.235400000000    -0.0112949  
C343     C      0.973240000000     0.151580000000     0.264020000000    -0.0124498  
C344     C      0.515650000000     0.153290000000     0.222830000000    -0.0107791  
C345     C      0.621770000000     0.023070000000     0.974470000000    -0.012738   
C346     C      0.621820000000     0.478180000000     0.013250000000    -0.0166566  
C347     C      0.653140000000     0.010980000000     0.461200000000    -0.0140668  
C348     C      0.648780000000     0.463390000000     0.495280000000    -0.0109311  
C349     C      0.899560000000     0.025080000000     0.024800000000    -0.0105581  
C350     C      0.898450000000     0.480570000000     0.485710000000    -0.0093578  
C351     C      0.869450000000     0.012020000000     0.039910000000    -0.0150105  
C352     C      0.872950000000     0.464860000000     0.505060000000    -0.0109769  
C353     C      0.984080000000     0.358510000000     0.482560000000    -0.0104387  
C354     C      0.534980000000     0.358040000000     0.014040000000    -0.0185498  
C355     C      0.996290000000     0.390470000000     0.471860000000    -0.00440156 
C356     C      0.523780000000     0.390310000000     0.024860000000    -0.0121648  
C357     C      0.535560000000     0.111750000000     0.018630000000    -0.0133138  
C358     C      0.991290000000     0.112970000000     0.479120000000    -0.0033778  
C359     C      0.519360000000     0.137490000000     0.037300000000    -0.00920864 
C360     C      0.974010000000     0.137030000000     0.499310000000    -0.0126124  
C361     C      0.572600000000     0.000400000000     0.494340000000     0.398302   
C362     C      0.948350000000     0.502230000000     0.503810000000     0.401831   
C363     C      0.511710000000     0.063110000000     0.499160000000     0.401961   
C364     C      0.009750000000     0.439430000000     0.498710000000     0.399328   
C365     C      0.566550000000     0.010650000000     0.762170000000     0.397878   
C366     C      0.942360000000     0.513030000000     0.745510000000     0.397906   
C367     C      0.505710000000     0.073940000000     0.754650000000     0.398034   
C368     C      0.002690000000     0.450010000000     0.753260000000     0.394869   
C369     C      0.007130000000     0.240310000000     0.945730000000     0.395852   
C370     C      0.999880000000     0.253930000000     0.569540000000     0.405194   
C371     C      0.999490000000     0.186410000000     0.014140000000     0.407562   
C372     C      0.007140000000     0.309380000000     0.501380000000     0.396328   
C373     C      0.999830000000     0.270600000000     0.695550000000     0.405529   
C374     C      0.007210000000     0.256180000000     0.819260000000     0.395328   
C375     C      0.999160000000     0.201130000000     0.750330000000     0.404291   
C376     C      0.008260000000     0.324180000000     0.764030000000     0.396597   
C377     C      0.748080000000     0.490660000000     0.563000000000     0.399151   
C378     C      0.772870000000     0.490540000000     0.940550000000     0.398822   
C379     C      0.821960000000     0.490010000000     0.514260000000     0.402703   
C380     C      0.699700000000     0.489530000000     0.988860000000     0.402798   
C381     C      0.754380000000     0.492730000000     0.815460000000     0.398772   
C382     C      0.755610000000     0.492850000000     0.690540000000     0.398039   
C383     C      0.817380000000     0.493950000000     0.753850000000     0.398809   
C384     C      0.691920000000     0.493130000000     0.752400000000     0.398178   
C385     C      0.780530000000     0.020180000000     0.891070000000    -0.0130375  
C386     C      0.779060000000     0.461960000000     0.890270000000    -0.0115189  
C387     C      0.754720000000     0.021450000000     0.866000000000    -0.013223   
C388     C      0.753300000000     0.462760000000     0.865220000000    -0.0121402  
C389     C      0.736740000000     0.020270000000     0.611810000000    -0.0129925  
C390     C      0.738370000000     0.462030000000     0.612700000000    -0.0114943  
C391     C      0.758800000000     0.021610000000     0.640180000000    -0.013287   
C392     C      0.760360000000     0.462880000000     0.641070000000    -0.012292   
C393     C      0.538380000000     0.232330000000     0.896830000000    -0.0119581  
C394     C      0.979620000000     0.231720000000     0.895460000000    -0.00862695 
C395     C      0.538880000000     0.254370000000     0.868310000000    -0.0128923  
C396     C      0.979430000000     0.256340000000     0.869950000000    -0.00909583 
C397     C      0.968490000000     0.278110000000     0.646660000000    -0.0116836  
C398     C      0.527240000000     0.279430000000     0.645270000000    -0.0107746  
C399     C      0.968290000000     0.255460000000     0.618640000000    -0.0122706  
C400     C      0.527760000000     0.254370000000     0.620200000000    -0.0113141  
C401     C      0.643420000000     0.515630000000     0.730460000000    -0.0105998  
C402     C      0.640420000000     0.471500000000     0.769360000000    -0.0116503  
C403     C      0.617980000000     0.033110000000     0.748410000000    -0.0093883  
C404     C      0.614480000000     0.489270000000     0.787440000000    -0.0118857  
C405     C      0.865330000000     0.016220000000     0.777130000000    -0.0118472  
C406     C      0.869200000000     0.473690000000     0.736510000000    -0.0112886  
C407     C      0.890740000000     0.034700000000     0.760130000000    -0.00952494 
C408     C      0.894670000000     0.492680000000     0.719150000000    -0.0120666  
C409     C      0.988940000000     0.373350000000     0.787200000000    -0.00357252 
C410     C      0.536120000000     0.373070000000     0.751480000000    -0.011094   
C411     C      0.975960000000     0.401860000000     0.770040000000    -0.0102522  
C412     C      0.521820000000     0.399850000000     0.732470000000    -0.0111257  
C413     C      0.989180000000     0.123280000000     0.779110000000    -0.00300932 
C414     C      0.529300000000     0.122670000000     0.735400000000    -0.0113051  
C415     C      0.973240000000     0.151580000000     0.764020000000    -0.0124641  
C416     C      0.515650000000     0.153290000000     0.722830000000    -0.0107859  
C417     C      0.621770000000     0.023070000000     0.474470000000    -0.0125678  
C418     C      0.621820000000     0.478180000000     0.513250000000    -0.00910538 
C419     C      0.653140000000     0.010980000000     0.961200000000    -0.0135404  
C420     C      0.648780000000     0.463390000000     0.995280000000    -0.00216003 
C421     C      0.899560000000     0.025080000000     0.524800000000    -0.0107286  
C422     C      0.898450000000     0.480570000000     0.985710000000    -0.00178856 
C423     C      0.869450000000     0.012020000000     0.539910000000    -0.0144721  
C424     C      0.872950000000     0.464860000000     0.005060000000    -0.0197313  
C425     C      0.984080000000     0.358510000000     0.982560000000    -0.0106234  
C426     C      0.534980000000     0.358040000000     0.514040000000    -0.011553   
C427     C      0.996290000000     0.390470000000     0.971860000000    -0.0037771  
C428     C      0.523780000000     0.390310000000     0.524860000000    -0.0113754  
C429     C      0.535560000000     0.111750000000     0.518630000000    -0.0105948  
C430     C      0.991290000000     0.112970000000     0.979120000000    -0.00479374 
C431     C      0.519360000000     0.137490000000     0.537300000000    -0.0097952  
C432     C      0.974010000000     0.137030000000     0.999310000000    -0.00514465 
C433     C      0.572600000000     0.500400000000     0.994340000000     0.407057   
C434     C      0.948350000000     0.002230000000     0.003810000000     0.394816   
C435     C      0.511710000000     0.563110000000     0.999160000000     0.406965   
C436     C      0.009750000000     0.939430000000     0.998710000000     0.403747   
C437     C      0.566550000000     0.510650000000     0.262170000000     0.398324   
C438     C      0.942360000000     0.013030000000     0.245510000000     0.397763   
C439     C      0.505710000000     0.573940000000     0.254650000000     0.398135   
C440     C      0.002690000000     0.950010000000     0.253260000000     0.394679   
C441     C      0.007130000000     0.740310000000     0.445730000000     0.396314   
C442     C      0.999880000000     0.753930000000     0.069540000000     0.404941   
C443     C      0.999490000000     0.686410000000     0.514140000000     0.407914   
C444     C      0.007140000000     0.809380000000     0.001380000000     0.392645   
C445     C      0.999830000000     0.770600000000     0.195550000000     0.405535   
C446     C      0.007210000000     0.756180000000     0.319260000000     0.395344   
C447     C      0.999160000000     0.701130000000     0.250330000000     0.404272   
C448     C      0.008260000000     0.824180000000     0.264030000000     0.396626   
C449     C      0.748080000000     0.990660000000     0.063000000000     0.40105    
C450     C      0.772870000000     0.990540000000     0.440550000000     0.401909   
C451     C      0.821960000000     0.990010000000     0.014260000000     0.40391    
C452     C      0.699700000000     0.989530000000     0.488860000000     0.405206   
C453     C      0.754380000000     0.992730000000     0.315460000000     0.401189   
C454     C      0.755610000000     0.992850000000     0.190530000000     0.400596   
C455     C      0.817380000000     0.993950000000     0.253850000000     0.401216   
C456     C      0.691920000000     0.993130000000     0.252400000000     0.400586   
C457     C      0.780530000000     0.520180000000     0.391070000000    -0.0118702  
C458     C      0.779060000000     0.961960000000     0.390270000000    -0.0112994  
C459     C      0.754720000000     0.521450000000     0.366000000000    -0.0121377  
C460     C      0.753300000000     0.962760000000     0.365220000000    -0.0119621  
C461     C      0.736740000000     0.520270000000     0.111810000000    -0.0118514  
C462     C      0.738370000000     0.962020000000     0.112700000000    -0.0114195  
C463     C      0.758800000000     0.521610000000     0.140180000000    -0.0122339  
C464     C      0.760360000000     0.962880000000     0.141070000000    -0.0121008  
C465     C      0.538380000000     0.732320000000     0.396830000000    -0.0119741  
C466     C      0.979620000000     0.731720000000     0.395460000000    -0.00861395 
C467     C      0.538880000000     0.754370000000     0.368310000000    -0.0128965  
C468     C      0.979430000000     0.756340000000     0.369950000000    -0.00911148 
C469     C      0.968490000000     0.778110000000     0.146660000000    -0.0116883  
C470     C      0.527240000000     0.779430000000     0.145270000000    -0.0107874  
C471     C      0.968290000000     0.755460000000     0.118640000000    -0.0122712  
C472     C      0.527760000000     0.754370000000     0.120200000000    -0.0113105  
C473     C      0.643420000000     0.015630000000     0.230460000000    -0.0120465  
C474     C      0.640420000000     0.971500000000     0.269360000000    -0.0123286  
C475     C      0.617980000000     0.533110000000     0.248410000000    -0.00968894 
C476     C      0.614480000000     0.989260000000     0.287440000000    -0.00804738 
C477     C      0.865330000000     0.516220000000     0.277130000000    -0.0103452  
C478     C      0.869200000000     0.973690000000     0.236510000000    -0.0119692  
C479     C      0.890740000000     0.534700000000     0.260130000000    -0.00985459 
C480     C      0.894670000000     0.992680000000     0.219140000000    -0.00824077 
C481     C      0.988940000000     0.873350000000     0.287200000000    -0.00365644 
C482     C      0.536120000000     0.873070000000     0.251480000000    -0.0110932  
C483     C      0.975960000000     0.901860000000     0.270040000000    -0.0102539  
C484     C      0.521820000000     0.899850000000     0.232470000000    -0.0111277  
C485     C      0.989180000000     0.623280000000     0.279110000000    -0.00304458 
C486     C      0.529300000000     0.622670000000     0.235400000000    -0.0112972  
C487     C      0.973240000000     0.651580000000     0.264020000000    -0.0124499  
C488     C      0.515650000000     0.653290000000     0.222830000000    -0.0107828  
C489     C      0.621770000000     0.523060000000     0.974470000000    -0.0118441  
C490     C      0.621820000000     0.978180000000     0.013250000000    -0.0167627  
C491     C      0.653140000000     0.510980000000     0.461200000000    -0.010685   
C492     C      0.648780000000     0.963390000000     0.495280000000    -0.0107389  
C493     C      0.899560000000     0.525080000000     0.024800000000    -0.011277   
C494     C      0.898450000000     0.980570000000     0.485710000000    -0.00795086 
C495     C      0.869450000000     0.512020000000     0.039910000000    -0.0112317  
C496     C      0.872950000000     0.964860000000     0.505060000000    -0.0112002  
C497     C      0.984080000000     0.858510000000     0.482560000000    -0.0104234  
C498     C      0.534980000000     0.858040000000     0.014040000000    -0.0185269  
C499     C      0.996290000000     0.890470000000     0.471860000000    -0.00448541 
C500     C      0.523780000000     0.890310000000     0.024860000000    -0.012201   
C501     C      0.535560000000     0.611750000000     0.018630000000    -0.0133381  
C502     C      0.991290000000     0.612970000000     0.479120000000    -0.00339878 
C503     C      0.519360000000     0.637500000000     0.037300000000    -0.00918546 
C504     C      0.974010000000     0.637030000000     0.499310000000    -0.0126121  
C505     C      0.572600000000     0.500400000000     0.494340000000     0.402677   
C506     C      0.948350000000     0.002230000000     0.503810000000     0.399151   
C507     C      0.511710000000     0.563110000000     0.499160000000     0.402122   
C508     C      0.009750000000     0.939430000000     0.498710000000     0.398912   
C509     C      0.566550000000     0.510650000000     0.762170000000     0.398073   
C510     C      0.942360000000     0.013030000000     0.745510000000     0.397753   
C511     C      0.505710000000     0.573940000000     0.754650000000     0.398125   
C512     C      0.002690000000     0.950010000000     0.753260000000     0.394662   
C513     C      0.007130000000     0.740310000000     0.945730000000     0.39586    
C514     C      0.999880000000     0.753930000000     0.569540000000     0.405161   
C515     C      0.999490000000     0.686410000000     0.014140000000     0.40752    
C516     C      0.007140000000     0.809380000000     0.501380000000     0.396374   
C517     C      0.999830000000     0.770600000000     0.695550000000     0.405534   
C518     C      0.007210000000     0.756180000000     0.819260000000     0.395342   
C519     C      0.999160000000     0.701130000000     0.750330000000     0.404269   
C520     C      0.008260000000     0.824180000000     0.764030000000     0.396619   
C521     C      0.748080000000     0.990660000000     0.563000000000     0.40153    
C522     C      0.772870000000     0.990540000000     0.940550000000     0.401197   
C523     C      0.821960000000     0.990010000000     0.514260000000     0.404964   
C524     C      0.699700000000     0.989530000000     0.988860000000     0.405085   
C525     C      0.754380000000     0.992730000000     0.815460000000     0.401187   
C526     C      0.755610000000     0.992850000000     0.690540000000     0.40069    
C527     C      0.817380000000     0.993950000000     0.753850000000     0.401207   
C528     C      0.691920000000     0.993130000000     0.752400000000     0.400581   
C529     C      0.780530000000     0.520180000000     0.891070000000    -0.0119226  
C530     C      0.779060000000     0.961960000000     0.890270000000    -0.0113577  
C531     C      0.754720000000     0.521450000000     0.866000000000    -0.0121135  
C532     C      0.753300000000     0.962760000000     0.865220000000    -0.0119543  
C533     C      0.736740000000     0.520270000000     0.611810000000    -0.0118467  
C534     C      0.738370000000     0.962020000000     0.612700000000    -0.0114279  
C535     C      0.758800000000     0.521610000000     0.640180000000    -0.0122553  
C536     C      0.760360000000     0.962880000000     0.641070000000    -0.0121098  
C537     C      0.538380000000     0.732320000000     0.896830000000    -0.0120019  
C538     C      0.979620000000     0.731720000000     0.895460000000    -0.00864098 
C539     C      0.538880000000     0.754370000000     0.868310000000    -0.0128856  
C540     C      0.979430000000     0.756340000000     0.869950000000    -0.00910889 
C541     C      0.968490000000     0.778110000000     0.646660000000    -0.0116948  
C542     C      0.527240000000     0.779430000000     0.645270000000    -0.0107845  
C543     C      0.968290000000     0.755460000000     0.618640000000    -0.0122736  
C544     C      0.527760000000     0.754370000000     0.620200000000    -0.0113161  
C545     C      0.643420000000     0.015630000000     0.730460000000    -0.0120537  
C546     C      0.640420000000     0.971500000000     0.769360000000    -0.0123431  
C547     C      0.617980000000     0.533110000000     0.748410000000    -0.00970765 
C548     C      0.614480000000     0.989260000000     0.787440000000    -0.00803209 
C549     C      0.865330000000     0.516220000000     0.777130000000    -0.0104005  
C550     C      0.869200000000     0.973690000000     0.736510000000    -0.0120244  
C551     C      0.890740000000     0.534700000000     0.760130000000    -0.00984536 
C552     C      0.894670000000     0.992680000000     0.719150000000    -0.00813802 
C553     C      0.988940000000     0.873350000000     0.787200000000    -0.00361028 
C554     C      0.536120000000     0.873070000000     0.751480000000    -0.0111014  
C555     C      0.975960000000     0.901860000000     0.770040000000    -0.0102733  
C556     C      0.521820000000     0.899850000000     0.732470000000    -0.0111372  
C557     C      0.989180000000     0.623280000000     0.779110000000    -0.00302946 
C558     C      0.529300000000     0.622670000000     0.735400000000    -0.0113075  
C559     C      0.973240000000     0.651580000000     0.764020000000    -0.0124642  
C560     C      0.515650000000     0.653290000000     0.722830000000    -0.0107897  
C561     C      0.621770000000     0.523060000000     0.474470000000    -0.011671   
C562     C      0.621820000000     0.978180000000     0.513250000000    -0.00923027 
C563     C      0.653140000000     0.510980000000     0.961200000000    -0.0101652  
C564     C      0.648780000000     0.963390000000     0.995280000000    -0.00198935 
C565     C      0.899560000000     0.525080000000     0.524800000000    -0.0114506  
C566     C      0.898450000000     0.980570000000     0.985710000000    -0.000407487
C567     C      0.869450000000     0.512020000000     0.539910000000    -0.0106758  
C568     C      0.872950000000     0.964860000000     0.005060000000    -0.019934   
C569     C      0.984080000000     0.858510000000     0.982560000000    -0.010608   
C570     C      0.534980000000     0.858040000000     0.514040000000    -0.0115357  
C571     C      0.996290000000     0.890470000000     0.971860000000    -0.00386163 
C572     C      0.523780000000     0.890310000000     0.524860000000    -0.0114138  
C573     C      0.535560000000     0.611750000000     0.518630000000    -0.0106133  
C574     C      0.991290000000     0.612970000000     0.979120000000    -0.00481682 
C575     C      0.519360000000     0.637500000000     0.537300000000    -0.00977324 
C576     C      0.974010000000     0.637030000000     0.999310000000    -0.00513222 
Cu1      Cu     0.507900000000     0.001520000000     0.470210000000     0.841407   
Cu2      Cu     0.013090000000     0.501200000000     0.027800000000     0.840491   
Cu3      Cu     0.508780000000     0.012080000000     0.225350000000     0.835497   
Cu4      Cu     0.000060000000     0.511690000000     0.282480000000     0.830655   
Cu5      Cu     0.032420000000     0.246290000000     0.009690000000     0.839279   
Cu6      Cu     0.474440000000     0.249310000000     0.505440000000     0.845206   
Cu7      Cu     0.032560000000     0.260880000000     0.255060000000     0.839346   
Cu8      Cu     0.474650000000     0.264500000000     0.259530000000     0.8435     
Cu9      Cu     0.260840000000     0.461570000000     0.501870000000     0.852768   
Cu10     Cu     0.260680000000     0.019060000000     0.001750000000     0.827853   
Cu11     Cu     0.254860000000     0.464370000000     0.252970000000     0.833263   
Cu12     Cu     0.254510000000     0.021840000000     0.253060000000     0.840596   
Cu13     Cu     0.507900000000     0.001520000000     0.970210000000     0.84503    
Cu14     Cu     0.013090000000     0.501200000000     0.527800000000     0.842987   
Cu15     Cu     0.508780000000     0.012080000000     0.725350000000     0.835473   
Cu16     Cu     0.000060000000     0.511690000000     0.782480000000     0.830654   
Cu17     Cu     0.032420000000     0.246290000000     0.509690000000     0.842564   
Cu18     Cu     0.474440000000     0.249310000000     0.005440000000     0.841729   
Cu19     Cu     0.032560000000     0.260880000000     0.755060000000     0.839387   
Cu20     Cu     0.474650000000     0.264500000000     0.759530000000     0.843555   
Cu21     Cu     0.260840000000     0.461570000000     0.001870000000     0.846968   
Cu22     Cu     0.260680000000     0.019060000000     0.501750000000     0.833498   
Cu23     Cu     0.254860000000     0.464370000000     0.752970000000     0.833313   
Cu24     Cu     0.254510000000     0.021840000000     0.753060000000     0.840646   
Cu25     Cu     0.507900000000     0.501520000000     0.470210000000     0.844762   
Cu26     Cu     0.013090000000     0.001210000000     0.027800000000     0.837125   
Cu27     Cu     0.508780000000     0.512080000000     0.225350000000     0.837135   
Cu28     Cu     0.000060000000     0.011690000000     0.282480000000     0.829003   
Cu29     Cu     0.032420000000     0.746290000000     0.009690000000     0.839279   
Cu30     Cu     0.474440000000     0.749320000000     0.505440000000     0.845187   
Cu31     Cu     0.032560000000     0.760880000000     0.255060000000     0.839328   
Cu32     Cu     0.474650000000     0.764500000000     0.259530000000     0.843491   
Cu33     Cu     0.260840000000     0.961570000000     0.501870000000     0.85487    
Cu34     Cu     0.260680000000     0.519060000000     0.001750000000     0.829001   
Cu35     Cu     0.254860000000     0.964370000000     0.252970000000     0.835404   
Cu36     Cu     0.254510000000     0.521840000000     0.253060000000     0.841669   
Cu37     Cu     0.507900000000     0.501520000000     0.970210000000     0.848391   
Cu38     Cu     0.013090000000     0.001210000000     0.527800000000     0.839593   
Cu39     Cu     0.508780000000     0.512080000000     0.725350000000     0.837114   
Cu40     Cu     0.000060000000     0.011690000000     0.782480000000     0.829001   
Cu41     Cu     0.032420000000     0.746290000000     0.509690000000     0.842567   
Cu42     Cu     0.474440000000     0.749320000000     0.005440000000     0.841708   
Cu43     Cu     0.032560000000     0.760880000000     0.755060000000     0.83937    
Cu44     Cu     0.474650000000     0.764500000000     0.759530000000     0.843546   
Cu45     Cu     0.260840000000     0.961570000000     0.001870000000     0.849071   
Cu46     Cu     0.260680000000     0.519060000000     0.501750000000     0.834675   
Cu47     Cu     0.254860000000     0.964370000000     0.752970000000     0.835456   
Cu48     Cu     0.254510000000     0.521840000000     0.753060000000     0.841721   
Cu49     Cu     0.007900000000     0.001520000000     0.470210000000     0.838217   
Cu50     Cu     0.513090000000     0.501200000000     0.027800000000     0.843582   
Cu51     Cu     0.008780000000     0.012080000000     0.225350000000     0.832445   
Cu52     Cu     0.500060000000     0.511690000000     0.282480000000     0.837095   
Cu53     Cu     0.532420000000     0.246290000000     0.009690000000     0.842275   
Cu54     Cu     0.974440000000     0.249310000000     0.505440000000     0.84836    
Cu55     Cu     0.532560000000     0.260880000000     0.255060000000     0.842375   
Cu56     Cu     0.974650000000     0.264500000000     0.259530000000     0.846675   
Cu57     Cu     0.760840000000     0.461570000000     0.501870000000     0.852744   
Cu58     Cu     0.760680000000     0.019060000000     0.001750000000     0.827864   
Cu59     Cu     0.754860000000     0.464370000000     0.252970000000     0.833239   
Cu60     Cu     0.754510000000     0.021840000000     0.253060000000     0.840578   
Cu61     Cu     0.007900000000     0.001520000000     0.970210000000     0.841823   
Cu62     Cu     0.513090000000     0.501200000000     0.527800000000     0.846107   
Cu63     Cu     0.008780000000     0.012080000000     0.725350000000     0.832413   
Cu64     Cu     0.500060000000     0.511690000000     0.782480000000     0.837101   
Cu65     Cu     0.532420000000     0.246290000000     0.509690000000     0.845591   
Cu66     Cu     0.974440000000     0.249310000000     0.005440000000     0.84487    
Cu67     Cu     0.532560000000     0.260880000000     0.755060000000     0.84242    
Cu68     Cu     0.974650000000     0.264500000000     0.759530000000     0.846733   
Cu69     Cu     0.760840000000     0.461570000000     0.001870000000     0.846935   
Cu70     Cu     0.760680000000     0.019060000000     0.501750000000     0.833518   
Cu71     Cu     0.754860000000     0.464370000000     0.752970000000     0.83329    
Cu72     Cu     0.754510000000     0.021840000000     0.753060000000     0.840628   
Cu73     Cu     0.007900000000     0.501520000000     0.470210000000     0.841554   
Cu74     Cu     0.513090000000     0.001210000000     0.027800000000     0.840229   
Cu75     Cu     0.008780000000     0.512080000000     0.225350000000     0.834087   
Cu76     Cu     0.500060000000     0.011690000000     0.282480000000     0.835422   
Cu77     Cu     0.532420000000     0.746290000000     0.009690000000     0.842264   
Cu78     Cu     0.974440000000     0.749320000000     0.505440000000     0.848329   
Cu79     Cu     0.532560000000     0.760880000000     0.255060000000     0.842346   
Cu80     Cu     0.974650000000     0.764500000000     0.259530000000     0.846654   
Cu81     Cu     0.760840000000     0.961570000000     0.501870000000     0.85483    
Cu82     Cu     0.760680000000     0.519060000000     0.001750000000     0.829004   
Cu83     Cu     0.754860000000     0.964370000000     0.252970000000     0.835364   
Cu84     Cu     0.754510000000     0.521840000000     0.253060000000     0.841644   
Cu85     Cu     0.007900000000     0.501520000000     0.970210000000     0.845167   
Cu86     Cu     0.513090000000     0.001210000000     0.527800000000     0.842725   
Cu87     Cu     0.008780000000     0.512080000000     0.725350000000     0.83406    
Cu88     Cu     0.500060000000     0.011690000000     0.782480000000     0.835427   
Cu89     Cu     0.532420000000     0.746290000000     0.509690000000     0.845583   
Cu90     Cu     0.974440000000     0.749320000000     0.005440000000     0.844836   
Cu91     Cu     0.532560000000     0.760880000000     0.755060000000     0.842391   
Cu92     Cu     0.974650000000     0.764500000000     0.759530000000     0.846712   
Cu93     Cu     0.760840000000     0.961570000000     0.001870000000     0.849021   
Cu94     Cu     0.760680000000     0.519060000000     0.501750000000     0.834688   
Cu95     Cu     0.754860000000     0.964370000000     0.752970000000     0.835416   
Cu96     Cu     0.754510000000     0.521840000000     0.753060000000     0.841695   
H1       H      0.302240000000     0.460500000000     0.378230000000     0.0391885  
H2       H      0.303760000000     0.020810000000     0.379050000000     0.0383808  
H3       H      0.258430000000     0.042500000000     0.351270000000     0.042712   
H4       H      0.276270000000     0.440600000000     0.404750000000     0.0428044  
H5       H      0.255720000000     0.441880000000     0.350010000000     0.0435383  
H6       H      0.230100000000     0.461170000000     0.377200000000     0.0404178  
H7       H      0.278820000000     0.041240000000     0.406130000000     0.0430761  
H8       H      0.231590000000     0.023930000000     0.377970000000     0.0399758  
H9       H      0.213750000000     0.460210000000     0.121400000000     0.0388591  
H10      H      0.212060000000     0.521000000000     0.120500000000     0.0386895  
H11      H      0.252770000000     0.042500000000     0.154370000000     0.0425988  
H12      H      0.243440000000     0.440770000000     0.098690000000     0.0426271  
H13      H      0.255650000000     0.442060000000     0.155830000000     0.0434241  
H14      H      0.285020000000     0.961080000000     0.132480000000     0.0404744  
H15      H      0.240610000000     0.041330000000     0.097140000000     0.0429112  
H16      H      0.283330000000     0.024510000000     0.131540000000     0.0400778  
H17      H      0.479570000000     0.208350000000     0.384150000000     0.0386213  
H18      H      0.540550000000     0.208000000000     0.388080000000     0.0386112  
H19      H      0.058950000000     0.247870000000     0.352930000000     0.0430805  
H20      H      0.457670000000     0.233760000000     0.409490000000     0.0427753  
H21      H      0.457680000000     0.253250000000     0.355790000000     0.0433231  
H22      H      0.978300000000     0.279740000000     0.381140000000     0.0418599  
H23      H      0.059200000000     0.237230000000     0.411820000000     0.0428175  
H24      H      0.043260000000     0.278440000000     0.376930000000     0.0397023  
H25      H      0.026950000000     0.302590000000     0.133550000000     0.0381573  
H26      H      0.466100000000     0.302220000000     0.137380000000     0.0387183  
H27      H      0.448030000000     0.261260000000     0.103200000000     0.0428714  
H28      H      0.049200000000     0.277970000000     0.159340000000     0.0429227  
H29      H      0.049450000000     0.257470000000     0.105970000000     0.0432984  
H30      H      0.029180000000     0.231190000000     0.131800000000     0.0403435  
H31      H      0.447710000000     0.273320000000     0.161740000000     0.0427968  
H32      H      0.464400000000     0.231500000000     0.127810000000     0.0398783  
H33      H      0.128880000000     0.454950000000     0.252920000000     0.0404811  
H34      H      0.131810000000     0.502260000000     0.211360000000     0.0412339  
H35      H      0.103890000000     0.047600000000     0.231940000000     0.0394003  
H36      H      0.154900000000     0.457840000000     0.286200000000     0.0397286  
H37      H      0.097750000000     0.472260000000     0.297960000000     0.0390168  
H38      H      0.125800000000     0.002680000000     0.306670000000     0.0390441  
H39      H      0.159740000000     0.032610000000     0.219290000000     0.0411066  
H40      H      0.129790000000     0.049170000000     0.265160000000     0.0401517  
H41      H      0.381110000000     0.456800000000     0.252330000000     0.0404644  
H42      H      0.376930000000     0.002280000000     0.295840000000     0.0406058  
H43      H      0.404670000000     0.048490000000     0.277330000000     0.0396905  
H44      H      0.354980000000     0.460380000000     0.219170000000     0.0392982  
H45      H      0.411550000000     0.476440000000     0.207690000000     0.039797   
H46      H      0.382990000000     0.506840000000     0.200670000000     0.0412083  
H47      H      0.348650000000     0.032540000000     0.288760000000     0.0406687  
H48      H      0.378870000000     0.051450000000     0.244120000000     0.040174   
H49      H      0.052100000000     0.383050000000     0.269530000000     0.0405038  
H50      H      0.002190000000     0.381760000000     0.308020000000     0.0357041  
H51      H      0.463620000000     0.417310000000     0.287000000000     0.0412493  
H52      H      0.050240000000     0.358020000000     0.235560000000     0.0405832  
H53      H      0.041140000000     0.414220000000     0.222400000000     0.0399071  
H54      H      0.507800000000     0.389860000000     0.212870000000     0.0416192  
H55      H      0.469110000000     0.358780000000     0.295880000000     0.0410862  
H56      H      0.458110000000     0.393610000000     0.252880000000     0.0395437  
H57      H      0.050160000000     0.128460000000     0.250030000000     0.0385697  
H58      H      0.005960000000     0.131570000000     0.297300000000     0.0385365  
H59      H      0.461660000000     0.165730000000     0.282600000000     0.0392774  
H60      H      0.037820000000     0.108220000000     0.215490000000     0.0394091  
H61      H      0.035000000000     0.168100000000     0.213480000000     0.0411426  
H62      H      0.499900000000     0.147520000000     0.202830000000     0.0390351  
H63      H      0.470950000000     0.108620000000     0.290690000000     0.0388495  
H64      H      0.454860000000     0.143230000000     0.247450000000     0.0413346  
H65      H      0.131470000000     0.491870000000     0.033210000000     0.043945   
H66      H      0.127090000000     0.042630000000     0.990720000000     0.0396121  
H67      H      0.168800000000     0.030990000000     0.455570000000     0.0414514  
H68      H      0.106460000000     0.459400000000     0.022810000000     0.0391321  
H69      H      0.161990000000     0.447740000000     0.011380000000     0.0374343  
H70      H      0.139000000000     0.449180000000     0.475760000000     0.0415193  
H71      H      0.107210000000     0.032830000000     0.455140000000     0.0407791  
H72      H      0.147970000000     0.998800000000     0.438790000000     0.040132   
H73      H      0.387270000000     0.994350000000     0.466630000000     0.0433525  
H74      H      0.392590000000     0.044360000000     0.008840000000     0.0372613  
H75      H      0.353620000000     0.031530000000     0.046710000000     0.041472   
H76      H      0.413630000000     0.462310000000     0.474930000000     0.0388067  
H77      H      0.359180000000     0.449080000000     0.489550000000     0.0418322  
H78      H      0.384240000000     0.450640000000     0.523740000000     0.0418325  
H79      H      0.414920000000     0.035400000000     0.043200000000     0.0399035  
H80      H      0.376410000000     0.499800000000     0.061820000000     0.0386302  
H81      H      0.044380000000     0.344960000000     0.034530000000     0.0399401  
H82      H      0.463760000000     0.361850000000     0.998650000000     0.0447963  
H83      H      0.476680000000     0.403820000000     0.460930000000     0.0382244  
H84      H      0.054500000000     0.360870000000     0.996910000000     0.0461334  
H85      H      0.005820000000     0.387500000000     0.043610000000     0.0421409  
H86      H      0.043990000000     0.403340000000     0.535070000000     0.0376513  
H87      H      0.475460000000     0.345210000000     0.461880000000     0.0379755  
H88      H      0.514790000000     0.387140000000     0.453730000000     0.0430064  
H89      H      0.005330000000     0.125480000000     0.461060000000     0.0375449  
H90      H      0.053140000000     0.122890000000     0.502900000000     0.0399119  
H91      H      0.037340000000     0.152830000000     0.048330000000     0.0401823  
H92      H      0.473670000000     0.097970000000     0.467050000000     0.0401548  
H93      H      0.459380000000     0.152140000000     0.483910000000     0.0404879  
H94      H      0.458220000000     0.124500000000     0.015840000000     0.036649   
H95      H      0.048620000000     0.096080000000     0.034840000000     0.0405285  
H96      H      0.505690000000     0.126290000000     0.056460000000     0.0394282  
H97      H      0.302240000000     0.460500000000     0.878230000000     0.0393684  
H98      H      0.303760000000     0.020810000000     0.879040000000     0.038583   
H99      H      0.258430000000     0.042500000000     0.851270000000     0.0428299  
H100     H      0.276270000000     0.440600000000     0.904750000000     0.0431385  
H101     H      0.255720000000     0.441880000000     0.850010000000     0.0436501  
H102     H      0.230100000000     0.461170000000     0.877200000000     0.040546   
H103     H      0.278820000000     0.041240000000     0.906130000000     0.0434557  
H104     H      0.231590000000     0.023930000000     0.877980000000     0.0400972  
H105     H      0.213750000000     0.460210000000     0.621400000000     0.0389961  
H106     H      0.212060000000     0.521000000000     0.620500000000     0.0388496  
H107     H      0.252770000000     0.042500000000     0.654370000000     0.042681   
H108     H      0.243440000000     0.440770000000     0.598700000000     0.0428205  
H109     H      0.255650000000     0.442060000000     0.655830000000     0.0435024  
H110     H      0.285020000000     0.961080000000     0.632470000000     0.0405285  
H111     H      0.240610000000     0.041330000000     0.597140000000     0.0431306  
H112     H      0.283330000000     0.024510000000     0.631540000000     0.0401263  
H113     H      0.479570000000     0.208350000000     0.884150000000     0.0388006  
H114     H      0.540550000000     0.208000000000     0.888080000000     0.0388321  
H115     H      0.058950000000     0.247870000000     0.852930000000     0.0432064  
H116     H      0.457670000000     0.233760000000     0.909490000000     0.0431569  
H117     H      0.457680000000     0.253250000000     0.855790000000     0.0434557  
H118     H      0.978300000000     0.279740000000     0.881140000000     0.0420608  
H119     H      0.059200000000     0.237230000000     0.911820000000     0.0432357  
H120     H      0.043260000000     0.278440000000     0.876930000000     0.0399033  
H121     H      0.026950000000     0.302590000000     0.633550000000     0.0382369  
H122     H      0.466100000000     0.302220000000     0.637380000000     0.0388255  
H123     H      0.448030000000     0.261260000000     0.603200000000     0.043056   
H124     H      0.049200000000     0.277970000000     0.659350000000     0.0429907  
H125     H      0.049450000000     0.257470000000     0.605970000000     0.0434393  
H126     H      0.029180000000     0.231190000000     0.631800000000     0.040388   
H127     H      0.447710000000     0.273320000000     0.661740000000     0.0428703  
H128     H      0.464400000000     0.231500000000     0.627810000000     0.0399434  
H129     H      0.128880000000     0.454950000000     0.752920000000     0.0405103  
H130     H      0.131810000000     0.502260000000     0.711360000000     0.0412707  
H131     H      0.103890000000     0.047600000000     0.731940000000     0.0394359  
H132     H      0.154900000000     0.457840000000     0.786200000000     0.0397784  
H133     H      0.097750000000     0.472260000000     0.797960000000     0.0390483  
H134     H      0.125800000000     0.002680000000     0.806680000000     0.0390768  
H135     H      0.159740000000     0.032610000000     0.719290000000     0.0411501  
H136     H      0.129790000000     0.049170000000     0.765160000000     0.0401996  
H137     H      0.381110000000     0.456800000000     0.752330000000     0.0405032  
H138     H      0.376930000000     0.002280000000     0.795830000000     0.0406836  
H139     H      0.404670000000     0.048490000000     0.777330000000     0.0397349  
H140     H      0.354980000000     0.460380000000     0.719170000000     0.0393409  
H141     H      0.411550000000     0.476440000000     0.707690000000     0.039788   
H142     H      0.382990000000     0.506840000000     0.700670000000     0.0411989  
H143     H      0.348650000000     0.032540000000     0.788760000000     0.0407432  
H144     H      0.378870000000     0.051450000000     0.744120000000     0.0402031  
H145     H      0.052100000000     0.383050000000     0.769530000000     0.0405415  
H146     H      0.002190000000     0.381760000000     0.808030000000     0.0357335  
H147     H      0.463620000000     0.417310000000     0.787000000000     0.0412875  
H148     H      0.050240000000     0.358020000000     0.735560000000     0.0406161  
H149     H      0.041140000000     0.414220000000     0.722400000000     0.0399298  
H150     H      0.507800000000     0.389860000000     0.712870000000     0.0416467  
H151     H      0.469110000000     0.358780000000     0.795890000000     0.0411221  
H152     H      0.458110000000     0.393610000000     0.752880000000     0.0395745  
H153     H      0.050160000000     0.128460000000     0.750030000000     0.0386076  
H154     H      0.005960000000     0.131570000000     0.797300000000     0.0385843  
H155     H      0.461660000000     0.165730000000     0.782600000000     0.0393386  
H156     H      0.037820000000     0.108220000000     0.715490000000     0.039436   
H157     H      0.035000000000     0.168100000000     0.713480000000     0.041177   
H158     H      0.499900000000     0.147520000000     0.702830000000     0.0390597  
H159     H      0.470950000000     0.108620000000     0.790700000000     0.038893   
H160     H      0.454860000000     0.143230000000     0.747450000000     0.0413708  
H161     H      0.131470000000     0.491870000000     0.533210000000     0.0432215  
H162     H      0.127090000000     0.042630000000     0.490720000000     0.0385187  
H163     H      0.168800000000     0.030990000000     0.955570000000     0.0416945  
H164     H      0.106460000000     0.459400000000     0.522800000000     0.0383954  
H165     H      0.161990000000     0.447740000000     0.511380000000     0.0417537  
H166     H      0.139000000000     0.449180000000     0.975760000000     0.0404159  
H167     H      0.107210000000     0.032830000000     0.955140000000     0.0410297  
H168     H      0.147970000000     0.998800000000     0.938790000000     0.0400976  
H169     H      0.387270000000     0.994350000000     0.966630000000     0.0427104  
H170     H      0.392590000000     0.044360000000     0.508840000000     0.0382116  
H171     H      0.353620000000     0.031530000000     0.546710000000     0.0415548  
H172     H      0.413630000000     0.462310000000     0.974930000000     0.0379684  
H173     H      0.359180000000     0.449080000000     0.989550000000     0.0462749  
H174     H      0.384240000000     0.450640000000     0.023740000000     0.0429226  
H175     H      0.414920000000     0.035400000000     0.543200000000     0.0401106  
H176     H      0.376410000000     0.499800000000     0.561820000000     0.0385479  
H177     H      0.044380000000     0.344960000000     0.534530000000     0.0388853  
H178     H      0.463760000000     0.361850000000     0.498650000000     0.0433827  
H179     H      0.476680000000     0.403820000000     0.960930000000     0.0383513  
H180     H      0.054500000000     0.360870000000     0.496910000000     0.0421718  
H181     H      0.005820000000     0.387500000000     0.543610000000     0.0426147  
H182     H      0.043990000000     0.403340000000     0.035070000000     0.0370554  
H183     H      0.475460000000     0.345210000000     0.961880000000     0.038718   
H184     H      0.514790000000     0.387140000000     0.953730000000     0.0431548  
H185     H      0.005330000000     0.125480000000     0.961060000000     0.0384902  
H186     H      0.053140000000     0.122890000000     0.002900000000     0.03921    
H187     H      0.037340000000     0.152830000000     0.548330000000     0.0404658  
H188     H      0.473670000000     0.097970000000     0.967050000000     0.0410287  
H189     H      0.459380000000     0.152140000000     0.983910000000     0.0401188  
H190     H      0.458220000000     0.124500000000     0.515840000000     0.0404407  
H191     H      0.048620000000     0.096080000000     0.534830000000     0.0405692  
H192     H      0.505690000000     0.126290000000     0.556460000000     0.0398223  
H193     H      0.302240000000     0.960500000000     0.378230000000     0.0394974  
H194     H      0.303760000000     0.520810000000     0.379050000000     0.0386985  
H195     H      0.258430000000     0.542500000000     0.351270000000     0.0426392  
H196     H      0.276270000000     0.940600000000     0.404750000000     0.0427898  
H197     H      0.255720000000     0.941880000000     0.350010000000     0.0435285  
H198     H      0.230100000000     0.961170000000     0.377200000000     0.0406708  
H199     H      0.278820000000     0.541240000000     0.406130000000     0.0430163  
H200     H      0.231590000000     0.523930000000     0.377970000000     0.0402749  
H201     H      0.213750000000     0.960210000000     0.121400000000     0.0391894  
H202     H      0.212060000000     0.021000000000     0.120500000000     0.0383716  
H203     H      0.252770000000     0.542500000000     0.154370000000     0.0425537  
H204     H      0.243440000000     0.940770000000     0.098690000000     0.042648   
H205     H      0.255650000000     0.942060000000     0.155830000000     0.0434149  
H206     H      0.285020000000     0.461080000000     0.132480000000     0.0402185  
H207     H      0.240610000000     0.541330000000     0.097140000000     0.0428499  
H208     H      0.283330000000     0.524510000000     0.131540000000     0.040387   
H209     H      0.479570000000     0.708350000000     0.384150000000     0.0386301  
H210     H      0.540550000000     0.708000000000     0.388080000000     0.0386347  
H211     H      0.058950000000     0.747870000000     0.352930000000     0.0430785  
H212     H      0.457670000000     0.733760000000     0.409490000000     0.0427768  
H213     H      0.457680000000     0.753250000000     0.355790000000     0.043324   
H214     H      0.978300000000     0.779740000000     0.381140000000     0.0418669  
H215     H      0.059200000000     0.737230000000     0.411820000000     0.0428291  
H216     H      0.043260000000     0.778440000000     0.376930000000     0.0397127  
H217     H      0.026950000000     0.802590000000     0.133550000000     0.0381909  
H218     H      0.466100000000     0.802220000000     0.137380000000     0.0387503  
H219     H      0.448030000000     0.761260000000     0.103200000000     0.0428735  
H220     H      0.049200000000     0.777970000000     0.159340000000     0.0429338  
H221     H      0.049450000000     0.757470000000     0.105970000000     0.0432979  
H222     H      0.029180000000     0.731190000000     0.131800000000     0.0403449  
H223     H      0.447710000000     0.773320000000     0.161740000000     0.042802   
H224     H      0.464400000000     0.731500000000     0.127810000000     0.0398779  
H225     H      0.128880000000     0.954950000000     0.252920000000     0.0409407  
H226     H      0.131810000000     0.002260000000     0.211360000000     0.0409007  
H227     H      0.103890000000     0.547600000000     0.231940000000     0.0395205  
H228     H      0.154900000000     0.957840000000     0.286200000000     0.0400861  
H229     H      0.097750000000     0.972270000000     0.297960000000     0.0387742  
H230     H      0.125800000000     0.502680000000     0.306670000000     0.0411444  
H231     H      0.159740000000     0.532610000000     0.219290000000     0.0410647  
H232     H      0.129790000000     0.549170000000     0.265160000000     0.0403869  
H233     H      0.381110000000     0.956800000000     0.252330000000     0.0409292  
H234     H      0.376930000000     0.502280000000     0.295840000000     0.0409509  
H235     H      0.404670000000     0.548490000000     0.277330000000     0.0398137  
H236     H      0.354980000000     0.960380000000     0.219170000000     0.0396688  
H237     H      0.411550000000     0.976440000000     0.207690000000     0.0395226  
H238     H      0.382990000000     0.006840000000     0.200670000000     0.0391042  
H239     H      0.348650000000     0.532540000000     0.288760000000     0.0406317  
H240     H      0.378870000000     0.551450000000     0.244120000000     0.0403995  
H241     H      0.052100000000     0.883040000000     0.269530000000     0.0406016  
H242     H      0.002190000000     0.881760000000     0.308020000000     0.0358321  
H243     H      0.463620000000     0.917310000000     0.287000000000     0.0414567  
H244     H      0.050240000000     0.858020000000     0.235560000000     0.0406236  
H245     H      0.041140000000     0.914220000000     0.222400000000     0.0401096  
H246     H      0.507800000000     0.889860000000     0.212870000000     0.04172    
H247     H      0.469110000000     0.858780000000     0.295880000000     0.0411253  
H248     H      0.458110000000     0.893610000000     0.252880000000     0.0396344  
H249     H      0.050160000000     0.628460000000     0.250030000000     0.0385794  
H250     H      0.005960000000     0.631570000000     0.297300000000     0.0385659  
H251     H      0.461660000000     0.665730000000     0.282600000000     0.0392809  
H252     H      0.037820000000     0.608220000000     0.215490000000     0.0394451  
H253     H      0.035000000000     0.668100000000     0.213480000000     0.0411424  
H254     H      0.499900000000     0.647520000000     0.202830000000     0.0390523  
H255     H      0.470950000000     0.608620000000     0.290690000000     0.0388789  
H256     H      0.454860000000     0.643230000000     0.247450000000     0.0413417  
H257     H      0.131470000000     0.991870000000     0.033210000000     0.044546   
H258     H      0.127090000000     0.542630000000     0.990720000000     0.0396875  
H259     H      0.168800000000     0.530990000000     0.455570000000     0.0410633  
H260     H      0.106460000000     0.959400000000     0.022810000000     0.0394045  
H261     H      0.161990000000     0.947740000000     0.011380000000     0.0374588  
H262     H      0.139000000000     0.949180000000     0.475760000000     0.0416775  
H263     H      0.107210000000     0.532830000000     0.455140000000     0.0408521  
H264     H      0.147970000000     0.498800000000     0.438790000000     0.0380653  
H265     H      0.387270000000     0.494350000000     0.466630000000     0.0430003  
H266     H      0.392590000000     0.544360000000     0.008840000000     0.0376271  
H267     H      0.353620000000     0.531530000000     0.046710000000     0.0410044  
H268     H      0.413630000000     0.962310000000     0.474930000000     0.0388003  
H269     H      0.359180000000     0.949080000000     0.489550000000     0.0419332  
H270     H      0.384240000000     0.950640000000     0.523740000000     0.0421546  
H271     H      0.414920000000     0.535400000000     0.043200000000     0.0402758  
H272     H      0.376410000000     0.999800000000     0.061820000000     0.0408229  
H273     H      0.044380000000     0.844960000000     0.034530000000     0.0399573  
H274     H      0.463760000000     0.861850000000     0.998650000000     0.0448342  
H275     H      0.476680000000     0.903820000000     0.460930000000     0.0383655  
H276     H      0.054500000000     0.860870000000     0.996910000000     0.0461652  
H277     H      0.005820000000     0.887500000000     0.043610000000     0.0422569  
H278     H      0.043990000000     0.903340000000     0.535070000000     0.0377851  
H279     H      0.475460000000     0.845210000000     0.461880000000     0.0379955  
H280     H      0.514790000000     0.887140000000     0.453730000000     0.0431147  
H281     H      0.005330000000     0.625480000000     0.461060000000     0.0375845  
H282     H      0.053140000000     0.622890000000     0.502900000000     0.0399463  
H283     H      0.037340000000     0.652830000000     0.048330000000     0.0401988  
H284     H      0.473670000000     0.597970000000     0.467050000000     0.0402407  
H285     H      0.459380000000     0.652140000000     0.483910000000     0.0405035  
H286     H      0.458220000000     0.624500000000     0.015840000000     0.0366689  
H287     H      0.048620000000     0.596080000000     0.034840000000     0.0406325  
H288     H      0.505690000000     0.626290000000     0.056460000000     0.0394603  
H289     H      0.302240000000     0.960500000000     0.878230000000     0.0396764  
H290     H      0.303760000000     0.520810000000     0.879040000000     0.0389012  
H291     H      0.258430000000     0.542500000000     0.851270000000     0.0427573  
H292     H      0.276270000000     0.940600000000     0.904750000000     0.0431235  
H293     H      0.255720000000     0.941880000000     0.850010000000     0.0436402  
H294     H      0.230100000000     0.961170000000     0.877200000000     0.0407983  
H295     H      0.278820000000     0.541240000000     0.906130000000     0.0433966  
H296     H      0.231590000000     0.523930000000     0.877980000000     0.0403963  
H297     H      0.213750000000     0.960210000000     0.621400000000     0.0393268  
H298     H      0.212060000000     0.021000000000     0.620500000000     0.0385302  
H299     H      0.252770000000     0.542500000000     0.654370000000     0.0426358  
H300     H      0.243440000000     0.940770000000     0.598700000000     0.0428412  
H301     H      0.255650000000     0.942060000000     0.655830000000     0.0434933  
H302     H      0.285020000000     0.461080000000     0.632470000000     0.040272   
H303     H      0.240610000000     0.541330000000     0.597140000000     0.0430697  
H304     H      0.283330000000     0.524510000000     0.631540000000     0.0404367  
H305     H      0.479570000000     0.708350000000     0.884150000000     0.0388095  
H306     H      0.540550000000     0.708000000000     0.888080000000     0.0388557  
H307     H      0.058950000000     0.747870000000     0.852930000000     0.0432043  
H308     H      0.457670000000     0.733760000000     0.909490000000     0.0431586  
H309     H      0.457680000000     0.753250000000     0.855790000000     0.0434567  
H310     H      0.978300000000     0.779740000000     0.881140000000     0.0420678  
H311     H      0.059200000000     0.737230000000     0.911820000000     0.0432474  
H312     H      0.043260000000     0.778440000000     0.876930000000     0.0399136  
H313     H      0.026950000000     0.802590000000     0.633550000000     0.0382706  
H314     H      0.466100000000     0.802220000000     0.637380000000     0.0388576  
H315     H      0.448030000000     0.761260000000     0.603200000000     0.0430582  
H316     H      0.049200000000     0.777970000000     0.659350000000     0.0430019  
H317     H      0.049450000000     0.757470000000     0.605970000000     0.043439   
H318     H      0.029180000000     0.731190000000     0.631800000000     0.0403895  
H319     H      0.447710000000     0.773320000000     0.661740000000     0.0428757  
H320     H      0.464400000000     0.731500000000     0.627810000000     0.0399431  
H321     H      0.128880000000     0.954950000000     0.752920000000     0.04097    
H322     H      0.131810000000     0.002260000000     0.711360000000     0.040936   
H323     H      0.103890000000     0.547600000000     0.731940000000     0.0395564  
H324     H      0.154900000000     0.957840000000     0.786200000000     0.0401356  
H325     H      0.097750000000     0.972270000000     0.797960000000     0.038806   
H326     H      0.125800000000     0.502680000000     0.806680000000     0.0411764  
H327     H      0.159740000000     0.532610000000     0.719290000000     0.0411086  
H328     H      0.129790000000     0.549170000000     0.765160000000     0.0404349  
H329     H      0.381110000000     0.956800000000     0.752330000000     0.0409682  
H330     H      0.376930000000     0.502280000000     0.795830000000     0.0410291  
H331     H      0.404670000000     0.548490000000     0.777330000000     0.0398582  
H332     H      0.354980000000     0.960380000000     0.719170000000     0.0397122  
H333     H      0.411550000000     0.976440000000     0.707690000000     0.0395143  
H334     H      0.382990000000     0.006840000000     0.700670000000     0.0390929  
H335     H      0.348650000000     0.532540000000     0.788760000000     0.0407062  
H336     H      0.378870000000     0.551450000000     0.744120000000     0.0404289  
H337     H      0.052100000000     0.883040000000     0.769530000000     0.0406393  
H338     H      0.002190000000     0.881760000000     0.808030000000     0.0358613  
H339     H      0.463620000000     0.917310000000     0.787000000000     0.0414948  
H340     H      0.050240000000     0.858020000000     0.735560000000     0.0406566  
H341     H      0.041140000000     0.914220000000     0.722400000000     0.0401325  
H342     H      0.507800000000     0.889860000000     0.712870000000     0.0417476  
H343     H      0.469110000000     0.858780000000     0.795890000000     0.0411612  
H344     H      0.458110000000     0.893610000000     0.752880000000     0.0396653  
H345     H      0.050160000000     0.628460000000     0.750030000000     0.0386174  
H346     H      0.005960000000     0.631570000000     0.797300000000     0.0386138  
H347     H      0.461660000000     0.665730000000     0.782600000000     0.0393421  
H348     H      0.037820000000     0.608220000000     0.715490000000     0.0394721  
H349     H      0.035000000000     0.668100000000     0.713480000000     0.0411768  
H350     H      0.499900000000     0.647520000000     0.702830000000     0.039077   
H351     H      0.470950000000     0.608620000000     0.790700000000     0.0389223  
H352     H      0.454860000000     0.643230000000     0.747450000000     0.041378   
H353     H      0.131470000000     0.991870000000     0.533210000000     0.0438255  
H354     H      0.127090000000     0.542630000000     0.490720000000     0.0385924  
H355     H      0.168800000000     0.530990000000     0.955570000000     0.0413077  
H356     H      0.106460000000     0.959400000000     0.522800000000     0.0386709  
H357     H      0.161990000000     0.947740000000     0.511380000000     0.0417688  
H358     H      0.139000000000     0.949180000000     0.975760000000     0.0405768  
H359     H      0.107210000000     0.532830000000     0.955140000000     0.0411032  
H360     H      0.147970000000     0.498800000000     0.938790000000     0.0380362  
H361     H      0.387270000000     0.494350000000     0.966630000000     0.0423578  
H362     H      0.392590000000     0.544360000000     0.508840000000     0.0385819  
H363     H      0.353620000000     0.531530000000     0.546710000000     0.0410853  
H364     H      0.413630000000     0.962310000000     0.974930000000     0.0379646  
H365     H      0.359180000000     0.949080000000     0.989550000000     0.0463655  
H366     H      0.384240000000     0.950640000000     0.023740000000     0.0432404  
H367     H      0.414920000000     0.535400000000     0.543200000000     0.0404848  
H368     H      0.376410000000     0.999800000000     0.561820000000     0.0407488  
H369     H      0.044380000000     0.844960000000     0.534530000000     0.0389035  
H370     H      0.463760000000     0.861850000000     0.498650000000     0.0434226  
H371     H      0.476680000000     0.903820000000     0.960930000000     0.0384918  
H372     H      0.054500000000     0.860870000000     0.496910000000     0.0422077  
H373     H      0.005820000000     0.887500000000     0.543610000000     0.0427307  
H374     H      0.043990000000     0.903340000000     0.035070000000     0.0371894  
H375     H      0.475460000000     0.845210000000     0.961880000000     0.0387377  
H376     H      0.514790000000     0.887140000000     0.953730000000     0.0432629  
H377     H      0.005330000000     0.625480000000     0.961060000000     0.038531   
H378     H      0.053140000000     0.622890000000     0.002900000000     0.0392422  
H379     H      0.037340000000     0.652830000000     0.548330000000     0.040483   
H380     H      0.473670000000     0.597970000000     0.967050000000     0.0411162  
H381     H      0.459380000000     0.652140000000     0.983910000000     0.040133   
H382     H      0.458220000000     0.624500000000     0.515840000000     0.0404676  
H383     H      0.048620000000     0.596080000000     0.534830000000     0.0406741  
H384     H      0.505690000000     0.626290000000     0.556460000000     0.0398552  
H385     H      0.802240000000     0.460500000000     0.378230000000     0.0392635  
H386     H      0.803760000000     0.020810000000     0.379050000000     0.0384642  
H387     H      0.758430000000     0.042500000000     0.351270000000     0.0427165  
H388     H      0.776270000000     0.440600000000     0.404750000000     0.042824   
H389     H      0.755720000000     0.441880000000     0.350010000000     0.04354    
H390     H      0.730100000000     0.461170000000     0.377200000000     0.0404081  
H391     H      0.778820000000     0.041240000000     0.406130000000     0.0431016  
H392     H      0.731590000000     0.023930000000     0.377970000000     0.0399689  
H393     H      0.713750000000     0.460210000000     0.121400000000     0.0388552  
H394     H      0.712060000000     0.521000000000     0.120500000000     0.0386936  
H395     H      0.752770000000     0.042500000000     0.154370000000     0.0425966  
H396     H      0.743440000000     0.440770000000     0.098690000000     0.0426262  
H397     H      0.755650000000     0.442060000000     0.155830000000     0.0434435  
H398     H      0.785010000000     0.961080000000     0.132480000000     0.0405407  
H399     H      0.740620000000     0.041330000000     0.097140000000     0.0429144  
H400     H      0.783340000000     0.024510000000     0.131540000000     0.0401043  
H401     H      0.979570000000     0.208350000000     0.384150000000     0.0393599  
H402     H      0.040550000000     0.208000000000     0.388080000000     0.0381249  
H403     H      0.558950000000     0.247870000000     0.352930000000     0.043042   
H404     H      0.957670000000     0.233760000000     0.409490000000     0.042656   
H405     H      0.957680000000     0.253250000000     0.355790000000     0.0431905  
H406     H      0.478300000000     0.279740000000     0.381140000000     0.0412029  
H407     H      0.559200000000     0.237230000000     0.411820000000     0.0427695  
H408     H      0.543260000000     0.278440000000     0.376930000000     0.0400885  
H409     H      0.526940000000     0.302590000000     0.133550000000     0.0386786  
H410     H      0.966100000000     0.302220000000     0.137380000000     0.0394341  
H411     H      0.948040000000     0.261260000000     0.103200000000     0.0429549  
H412     H      0.549200000000     0.277970000000     0.159340000000     0.0427233  
H413     H      0.549450000000     0.257470000000     0.105970000000     0.0431139  
H414     H      0.529180000000     0.231190000000     0.131800000000     0.040935   
H415     H      0.947710000000     0.273320000000     0.161740000000     0.0428294  
H416     H      0.964400000000     0.231500000000     0.127810000000     0.0403791  
H417     H      0.628880000000     0.454950000000     0.252920000000     0.0405028  
H418     H      0.631810000000     0.502260000000     0.211360000000     0.0412727  
H419     H      0.603890000000     0.047600000000     0.231940000000     0.0394263  
H420     H      0.654900000000     0.457840000000     0.286200000000     0.0397364  
H421     H      0.597750000000     0.472260000000     0.297960000000     0.0391462  
H422     H      0.625800000000     0.002680000000     0.306670000000     0.0390976  
H423     H      0.659740000000     0.032610000000     0.219290000000     0.041113   
H424     H      0.629790000000     0.049170000000     0.265160000000     0.0401587  
H425     H      0.881110000000     0.456800000000     0.252330000000     0.0406293  
H426     H      0.876930000000     0.002280000000     0.295840000000     0.0407946  
H427     H      0.904670000000     0.048490000000     0.277330000000     0.0400395  
H428     H      0.854980000000     0.460380000000     0.219170000000     0.0393873  
H429     H      0.911550000000     0.476440000000     0.207690000000     0.0402558  
H430     H      0.882990000000     0.506840000000     0.200670000000     0.0414183  
H431     H      0.848650000000     0.032540000000     0.288760000000     0.0407409  
H432     H      0.878870000000     0.051450000000     0.244120000000     0.0403334  
H433     H      0.552100000000     0.383050000000     0.269530000000     0.0406545  
H434     H      0.502190000000     0.381760000000     0.308020000000     0.0395554  
H435     H      0.963620000000     0.417310000000     0.287000000000     0.0418692  
H436     H      0.550240000000     0.358020000000     0.235560000000     0.040653   
H437     H      0.541150000000     0.414220000000     0.222400000000     0.0399323  
H438     H      0.007800000000     0.389860000000     0.212870000000     0.0407119  
H439     H      0.969110000000     0.358780000000     0.295880000000     0.0403207  
H440     H      0.958110000000     0.393610000000     0.252880000000     0.0401457  
H441     H      0.550160000000     0.128460000000     0.250030000000     0.0391412  
H442     H      0.505960000000     0.131570000000     0.297300000000     0.042508   
H443     H      0.961660000000     0.165730000000     0.282600000000     0.0401131  
H444     H      0.537820000000     0.108220000000     0.215490000000     0.0402439  
H445     H      0.535000000000     0.168100000000     0.213480000000     0.0402032  
H446     H      0.999900000000     0.147520000000     0.202830000000     0.0432194  
H447     H      0.970950000000     0.108620000000     0.290690000000     0.0383045  
H448     H      0.954860000000     0.143230000000     0.247450000000     0.0421296  
H449     H      0.631470000000     0.491870000000     0.033210000000     0.0439659  
H450     H      0.627090000000     0.042630000000     0.990720000000     0.0396194  
H451     H      0.668800000000     0.030990000000     0.455570000000     0.0414502  
H452     H      0.606460000000     0.459400000000     0.022810000000     0.0391566  
H453     H      0.661990000000     0.447740000000     0.011380000000     0.0374229  
H454     H      0.639000000000     0.449180000000     0.475760000000     0.0415395  
H455     H      0.607210000000     0.032830000000     0.455140000000     0.0408421  
H456     H      0.647970000000     0.998800000000     0.438790000000     0.0401483  
H457     H      0.887270000000     0.994350000000     0.466630000000     0.0435341  
H458     H      0.892590000000     0.044360000000     0.008840000000     0.0374677  
H459     H      0.853620000000     0.031530000000     0.046710000000     0.041542   
H460     H      0.913630000000     0.462310000000     0.474930000000     0.0392084  
H461     H      0.859190000000     0.449080000000     0.489550000000     0.0419153  
H462     H      0.884250000000     0.450640000000     0.523740000000     0.0420798  
H463     H      0.914920000000     0.035400000000     0.043200000000     0.0403348  
H464     H      0.876410000000     0.499800000000     0.061820000000     0.0388485  
H465     H      0.544380000000     0.344960000000     0.034530000000     0.0400221  
H466     H      0.963760000000     0.361850000000     0.998650000000     0.0454     
H467     H      0.976680000000     0.403820000000     0.460930000000     0.0378057  
H468     H      0.554500000000     0.360870000000     0.996910000000     0.046167   
H469     H      0.505820000000     0.387500000000     0.043610000000     0.0431624  
H470     H      0.543990000000     0.403340000000     0.535070000000     0.0377762  
H471     H      0.975460000000     0.345210000000     0.461880000000     0.0387621  
H472     H      0.014800000000     0.387140000000     0.453730000000     0.0393837  
H473     H      0.505330000000     0.125480000000     0.461060000000     0.0415835  
H474     H      0.553140000000     0.122890000000     0.502900000000     0.0402945  
H475     H      0.537340000000     0.152830000000     0.048330000000     0.0400959  
H476     H      0.973670000000     0.097970000000     0.467050000000     0.0396529  
H477     H      0.959380000000     0.152140000000     0.483910000000     0.0412233  
H478     H      0.958210000000     0.124500000000     0.015840000000     0.0376342  
H479     H      0.548620000000     0.096080000000     0.034840000000     0.0407697  
H480     H      0.005690000000     0.126290000000     0.056460000000     0.0387955  
H481     H      0.802240000000     0.460500000000     0.878230000000     0.0394434  
H482     H      0.803760000000     0.020810000000     0.879040000000     0.0386664  
H483     H      0.758430000000     0.042500000000     0.851270000000     0.0428346  
H484     H      0.776270000000     0.440600000000     0.904750000000     0.0431583  
H485     H      0.755720000000     0.441880000000     0.850010000000     0.0436519  
H486     H      0.730100000000     0.461170000000     0.877200000000     0.0405365  
H487     H      0.778820000000     0.041240000000     0.906130000000     0.0434813  
H488     H      0.731590000000     0.023930000000     0.877980000000     0.0400904  
H489     H      0.713750000000     0.460210000000     0.621400000000     0.0389926  
H490     H      0.712060000000     0.521000000000     0.620500000000     0.0388541  
H491     H      0.752770000000     0.042500000000     0.654370000000     0.0426789  
H492     H      0.743440000000     0.440770000000     0.598700000000     0.04282    
H493     H      0.755650000000     0.442060000000     0.655830000000     0.0435221  
H494     H      0.785010000000     0.961080000000     0.632470000000     0.0405949  
H495     H      0.740620000000     0.041330000000     0.597140000000     0.0431343  
H496     H      0.783340000000     0.024510000000     0.631540000000     0.040153   
H497     H      0.979570000000     0.208350000000     0.884150000000     0.0395387  
H498     H      0.040550000000     0.208000000000     0.888080000000     0.0383451  
H499     H      0.558950000000     0.247870000000     0.852930000000     0.0431681  
H500     H      0.957670000000     0.233760000000     0.909490000000     0.0430375  
H501     H      0.957680000000     0.253250000000     0.855790000000     0.0433231  
H502     H      0.478300000000     0.279740000000     0.881140000000     0.0414049  
H503     H      0.559200000000     0.237230000000     0.911820000000     0.043189   
H504     H      0.543260000000     0.278440000000     0.876930000000     0.04029    
H505     H      0.526940000000     0.302590000000     0.633550000000     0.0387605  
H506     H      0.966100000000     0.302220000000     0.637380000000     0.0395432  
H507     H      0.948040000000     0.261260000000     0.603200000000     0.0431398  
H508     H      0.549200000000     0.277970000000     0.659350000000     0.0427914  
H509     H      0.549450000000     0.257470000000     0.605970000000     0.0432546  
H510     H      0.529180000000     0.231190000000     0.631800000000     0.040981   
H511     H      0.947710000000     0.273320000000     0.661740000000     0.0429032  
H512     H      0.964400000000     0.231500000000     0.627810000000     0.0404454  
H513     H      0.628880000000     0.454950000000     0.752920000000     0.040532   
H514     H      0.631810000000     0.502260000000     0.711360000000     0.0413097  
H515     H      0.603890000000     0.047600000000     0.731940000000     0.039462   
H516     H      0.654900000000     0.457840000000     0.786200000000     0.0397863  
H517     H      0.597750000000     0.472260000000     0.797960000000     0.0391778  
H518     H      0.625800000000     0.002680000000     0.806680000000     0.0391304  
H519     H      0.659740000000     0.032610000000     0.719290000000     0.0411567  
H520     H      0.629790000000     0.049170000000     0.765160000000     0.0402067  
H521     H      0.881110000000     0.456800000000     0.752330000000     0.0406684  
H522     H      0.876930000000     0.002280000000     0.795830000000     0.0408724  
H523     H      0.904670000000     0.048490000000     0.777330000000     0.0400842  
H524     H      0.854980000000     0.460380000000     0.719170000000     0.0394303  
H525     H      0.911550000000     0.476440000000     0.707690000000     0.0402477  
H526     H      0.882990000000     0.506840000000     0.700670000000     0.0414094  
H527     H      0.848650000000     0.032540000000     0.788760000000     0.0408155  
H528     H      0.878870000000     0.051450000000     0.744120000000     0.0403629  
H529     H      0.552100000000     0.383050000000     0.769530000000     0.0406923  
H530     H      0.502190000000     0.381760000000     0.808030000000     0.0395854  
H531     H      0.963620000000     0.417310000000     0.787000000000     0.041907   
H532     H      0.550240000000     0.358020000000     0.735560000000     0.0406861  
H533     H      0.541150000000     0.414220000000     0.722400000000     0.0399554  
H534     H      0.007800000000     0.389860000000     0.712870000000     0.040737   
H535     H      0.969110000000     0.358780000000     0.795890000000     0.0403579  
H536     H      0.958110000000     0.393610000000     0.752880000000     0.0401769  
H537     H      0.550160000000     0.128460000000     0.750030000000     0.0391799  
H538     H      0.505960000000     0.131570000000     0.797300000000     0.0425594  
H539     H      0.961660000000     0.165730000000     0.782600000000     0.0401746  
H540     H      0.537820000000     0.108220000000     0.715490000000     0.0402725  
H541     H      0.535000000000     0.168100000000     0.713480000000     0.0402363  
H542     H      0.999900000000     0.147520000000     0.702830000000     0.0432503  
H543     H      0.970950000000     0.108620000000     0.790700000000     0.0383482  
H544     H      0.954860000000     0.143230000000     0.747450000000     0.0421669  
H545     H      0.631470000000     0.491870000000     0.533210000000     0.0432403  
H546     H      0.627090000000     0.042630000000     0.490720000000     0.0385238  
H547     H      0.668800000000     0.030990000000     0.955570000000     0.0416935  
H548     H      0.606460000000     0.459400000000     0.522800000000     0.0384186  
H549     H      0.661990000000     0.447740000000     0.511380000000     0.0417531  
H550     H      0.639000000000     0.449180000000     0.975760000000     0.0404332  
H551     H      0.607210000000     0.032830000000     0.955140000000     0.0410933  
H552     H      0.647970000000     0.998800000000     0.938790000000     0.0401138  
H553     H      0.887270000000     0.994350000000     0.966630000000     0.042892   
H554     H      0.892590000000     0.044360000000     0.508840000000     0.038419   
H555     H      0.853620000000     0.031530000000     0.546710000000     0.0416251  
H556     H      0.913630000000     0.462310000000     0.974930000000     0.0383692  
H557     H      0.859190000000     0.449080000000     0.989550000000     0.0463591  
H558     H      0.884250000000     0.450640000000     0.023740000000     0.0431686  
H559     H      0.914920000000     0.035400000000     0.543200000000     0.0405432  
H560     H      0.876410000000     0.499800000000     0.561820000000     0.0387667  
H561     H      0.544380000000     0.344960000000     0.534530000000     0.038963   
H562     H      0.963760000000     0.361850000000     0.498650000000     0.043991   
H563     H      0.976680000000     0.403820000000     0.960930000000     0.0379336  
H564     H      0.554500000000     0.360870000000     0.496910000000     0.0421897  
H565     H      0.505820000000     0.387500000000     0.543610000000     0.0436413  
H566     H      0.543990000000     0.403340000000     0.035070000000     0.0371778  
H567     H      0.975460000000     0.345210000000     0.961880000000     0.0395021  
H568     H      0.014800000000     0.387140000000     0.953730000000     0.0395358  
H569     H      0.505330000000     0.125480000000     0.961060000000     0.042527   
H570     H      0.553140000000     0.122890000000     0.002900000000     0.0395881  
H571     H      0.537340000000     0.152830000000     0.548330000000     0.0403799  
H572     H      0.973670000000     0.097970000000     0.967050000000     0.0405265  
H573     H      0.959380000000     0.152140000000     0.983910000000     0.0408552  
H574     H      0.958210000000     0.124500000000     0.515840000000     0.0414222  
H575     H      0.548620000000     0.096080000000     0.534830000000     0.0408111  
H576     H      0.005690000000     0.126290000000     0.556460000000     0.0391858  
H577     H      0.802240000000     0.960500000000     0.378230000000     0.039569   
H578     H      0.803760000000     0.520810000000     0.379050000000     0.0387793  
H579     H      0.758430000000     0.542500000000     0.351270000000     0.0426442  
H580     H      0.776270000000     0.940600000000     0.404750000000     0.0428094  
H581     H      0.755720000000     0.941880000000     0.350010000000     0.0435303  
H582     H      0.730100000000     0.961170000000     0.377200000000     0.0406595  
H583     H      0.778820000000     0.541240000000     0.406130000000     0.043042   
H584     H      0.731590000000     0.523930000000     0.377970000000     0.0402664  
H585     H      0.713750000000     0.960210000000     0.121400000000     0.0391836  
H586     H      0.712060000000     0.021000000000     0.120500000000     0.0383772  
H587     H      0.752770000000     0.542500000000     0.154370000000     0.0425519  
H588     H      0.743440000000     0.940770000000     0.098690000000     0.0426471  
H589     H      0.755650000000     0.942060000000     0.155830000000     0.0434343  
H590     H      0.785010000000     0.461080000000     0.132480000000     0.0402875  
H591     H      0.740620000000     0.541330000000     0.097140000000     0.0428535  
H592     H      0.783340000000     0.524510000000     0.131540000000     0.0404115  
H593     H      0.979570000000     0.708350000000     0.384150000000     0.0393664  
H594     H      0.040550000000     0.708000000000     0.388080000000     0.0381496  
H595     H      0.558950000000     0.747870000000     0.352930000000     0.0430401  
H596     H      0.957670000000     0.733760000000     0.409490000000     0.0426581  
H597     H      0.957680000000     0.753250000000     0.355790000000     0.043192   
H598     H      0.478300000000     0.779740000000     0.381140000000     0.0412134  
H599     H      0.559200000000     0.737230000000     0.411820000000     0.0427813  
H600     H      0.543260000000     0.778440000000     0.376930000000     0.0400971  
H601     H      0.526940000000     0.802590000000     0.133550000000     0.03871    
H602     H      0.966100000000     0.802220000000     0.137380000000     0.0394619  
H603     H      0.948040000000     0.761260000000     0.103200000000     0.0429567  
H604     H      0.549200000000     0.777970000000     0.159340000000     0.0427352  
H605     H      0.549450000000     0.757470000000     0.105970000000     0.0431142  
H606     H      0.529180000000     0.731190000000     0.131800000000     0.0409348  
H607     H      0.947710000000     0.773320000000     0.161740000000     0.0428342  
H608     H      0.964400000000     0.731500000000     0.127810000000     0.0403773  
H609     H      0.628880000000     0.954950000000     0.252920000000     0.0409599  
H610     H      0.631810000000     0.002260000000     0.211360000000     0.0409402  
H611     H      0.603890000000     0.547600000000     0.231940000000     0.0395459  
H612     H      0.654900000000     0.957840000000     0.286200000000     0.0400919  
H613     H      0.597750000000     0.972270000000     0.297960000000     0.0389044  
H614     H      0.625800000000     0.502680000000     0.306670000000     0.0411878  
H615     H      0.659740000000     0.532610000000     0.219290000000     0.0410713  
H616     H      0.629790000000     0.549170000000     0.265160000000     0.0403926  
H617     H      0.881110000000     0.956800000000     0.252330000000     0.0410879  
H618     H      0.876930000000     0.502280000000     0.295840000000     0.0411371  
H619     H      0.904670000000     0.548490000000     0.277330000000     0.040161   
H620     H      0.854980000000     0.960380000000     0.219170000000     0.0397534  
H621     H      0.911550000000     0.976440000000     0.207690000000     0.0399815  
H622     H      0.882990000000     0.006840000000     0.200670000000     0.0393366  
H623     H      0.848650000000     0.532540000000     0.288760000000     0.0407046  
H624     H      0.878870000000     0.551450000000     0.244120000000     0.0405564  
H625     H      0.552100000000     0.883040000000     0.269530000000     0.0407508  
H626     H      0.502190000000     0.881760000000     0.308020000000     0.0396609  
H627     H      0.963620000000     0.917310000000     0.287000000000     0.0420711  
H628     H      0.550240000000     0.858020000000     0.235560000000     0.0406929  
H629     H      0.541150000000     0.914220000000     0.222400000000     0.0401342  
H630     H      0.007800000000     0.889860000000     0.212870000000     0.040817   
H631     H      0.969110000000     0.858780000000     0.295880000000     0.0403642  
H632     H      0.958110000000     0.893610000000     0.252880000000     0.040232   
H633     H      0.550160000000     0.628460000000     0.250030000000     0.0391494  
H634     H      0.505960000000     0.631570000000     0.297300000000     0.0425291  
H635     H      0.961660000000     0.665730000000     0.282600000000     0.0401145  
H636     H      0.537820000000     0.608220000000     0.215490000000     0.040278   
H637     H      0.535000000000     0.668100000000     0.213480000000     0.0402051  
H638     H      0.999900000000     0.647520000000     0.202830000000     0.0432259  
H639     H      0.970950000000     0.608620000000     0.290690000000     0.0383352  
H640     H      0.954860000000     0.643230000000     0.247450000000     0.0421351  
H641     H      0.631470000000     0.991870000000     0.033210000000     0.044563   
H642     H      0.627090000000     0.542630000000     0.990720000000     0.0396941  
H643     H      0.668800000000     0.530990000000     0.455570000000     0.0410642  
H644     H      0.606460000000     0.959400000000     0.022810000000     0.0394277  
H645     H      0.661990000000     0.947740000000     0.011380000000     0.0374473  
H646     H      0.639000000000     0.949180000000     0.475760000000     0.0416969  
H647     H      0.607210000000     0.532830000000     0.455140000000     0.0409146  
H648     H      0.647970000000     0.498800000000     0.438790000000     0.0380937  
H649     H      0.887270000000     0.494350000000     0.466630000000     0.0431862  
H650     H      0.892590000000     0.544360000000     0.008840000000     0.0378292  
H651     H      0.853620000000     0.531530000000     0.046710000000     0.0410795  
H652     H      0.913630000000     0.962310000000     0.474930000000     0.0392     
H653     H      0.859190000000     0.949080000000     0.489550000000     0.0420148  
H654     H      0.884250000000     0.950640000000     0.523740000000     0.0423967  
H655     H      0.914920000000     0.535400000000     0.043200000000     0.0407029  
H656     H      0.876410000000     0.999800000000     0.061820000000     0.0410163  
H657     H      0.544380000000     0.844960000000     0.034530000000     0.0400391  
H658     H      0.963760000000     0.861850000000     0.998650000000     0.0454337  
H659     H      0.976680000000     0.903820000000     0.460930000000     0.0379484  
H660     H      0.554500000000     0.860870000000     0.996910000000     0.0461984  
H661     H      0.505820000000     0.887500000000     0.043610000000     0.0432733  
H662     H      0.543990000000     0.903340000000     0.535070000000     0.0379089  
H663     H      0.975460000000     0.845210000000     0.461880000000     0.0387775  
H664     H      0.014800000000     0.887140000000     0.453730000000     0.0395146  
H665     H      0.505330000000     0.625480000000     0.461060000000     0.041615   
H666     H      0.553140000000     0.622890000000     0.502900000000     0.0403277  
H667     H      0.537340000000     0.652830000000     0.048330000000     0.0401116  
H668     H      0.973670000000     0.597970000000     0.467050000000     0.0397393  
H669     H      0.959380000000     0.652140000000     0.483910000000     0.0412371  
H670     H      0.958210000000     0.624500000000     0.015840000000     0.0376519  
H671     H      0.548620000000     0.596080000000     0.034840000000     0.0408728  
H672     H      0.005690000000     0.626290000000     0.056460000000     0.0388283  
H673     H      0.802240000000     0.960500000000     0.878230000000     0.0397481  
H674     H      0.803760000000     0.520810000000     0.879040000000     0.0389821  
H675     H      0.758430000000     0.542500000000     0.851270000000     0.0427624  
H676     H      0.776270000000     0.940600000000     0.904750000000     0.0431432  
H677     H      0.755720000000     0.941880000000     0.850010000000     0.0436421  
H678     H      0.730100000000     0.961170000000     0.877200000000     0.0407873  
H679     H      0.778820000000     0.541240000000     0.906130000000     0.0434226  
H680     H      0.731590000000     0.523930000000     0.877980000000     0.0403879  
H681     H      0.713750000000     0.960210000000     0.621400000000     0.0393214  
H682     H      0.712060000000     0.021000000000     0.620500000000     0.0385362  
H683     H      0.752770000000     0.542500000000     0.654370000000     0.0426342  
H684     H      0.743440000000     0.940770000000     0.598700000000     0.0428408  
H685     H      0.755650000000     0.942060000000     0.655830000000     0.0435129  
H686     H      0.785010000000     0.461080000000     0.632470000000     0.0403412  
H687     H      0.740620000000     0.541330000000     0.597140000000     0.0430738  
H688     H      0.783340000000     0.524510000000     0.631540000000     0.0404614  
H689     H      0.979570000000     0.708350000000     0.884150000000     0.0395453  
H690     H      0.040550000000     0.708000000000     0.888080000000     0.0383699  
H691     H      0.558950000000     0.747870000000     0.852930000000     0.0431662  
H692     H      0.957670000000     0.733760000000     0.909490000000     0.0430397  
H693     H      0.957680000000     0.753250000000     0.855790000000     0.0433246  
H694     H      0.478300000000     0.779740000000     0.881140000000     0.0414153  
H695     H      0.559200000000     0.737230000000     0.911820000000     0.0432009  
H696     H      0.543260000000     0.778440000000     0.876930000000     0.0402985  
H697     H      0.526940000000     0.802590000000     0.633550000000     0.0387919  
H698     H      0.966100000000     0.802220000000     0.637380000000     0.0395709  
H699     H      0.948040000000     0.761260000000     0.603200000000     0.0431417  
H700     H      0.549200000000     0.777970000000     0.659350000000     0.0428034  
H701     H      0.549450000000     0.757470000000     0.605970000000     0.043255   
H702     H      0.529180000000     0.731190000000     0.631800000000     0.0409809  
H703     H      0.947710000000     0.773320000000     0.661740000000     0.0429081  
H704     H      0.964400000000     0.731500000000     0.627810000000     0.0404437  
H705     H      0.628880000000     0.954950000000     0.752920000000     0.0409893  
H706     H      0.631810000000     0.002260000000     0.711360000000     0.0409757  
H707     H      0.603890000000     0.547600000000     0.731940000000     0.0395818  
H708     H      0.654900000000     0.957840000000     0.786200000000     0.0401415  
H709     H      0.597750000000     0.972270000000     0.797960000000     0.0389363  
H710     H      0.625800000000     0.502680000000     0.806680000000     0.0412199  
H711     H      0.659740000000     0.532610000000     0.719290000000     0.0411154  
H712     H      0.629790000000     0.549170000000     0.765160000000     0.0404406  
H713     H      0.881110000000     0.956800000000     0.752330000000     0.0411271  
H714     H      0.876930000000     0.502280000000     0.795830000000     0.0412153  
H715     H      0.904670000000     0.548490000000     0.777330000000     0.0402058  
H716     H      0.854980000000     0.960380000000     0.719170000000     0.0397969  
H717     H      0.911550000000     0.976440000000     0.707690000000     0.039974   
H718     H      0.882990000000     0.006840000000     0.700670000000     0.0393258  
H719     H      0.848650000000     0.532540000000     0.788760000000     0.0407791  
H720     H      0.878870000000     0.551450000000     0.744120000000     0.0405862  
H721     H      0.552100000000     0.883040000000     0.769530000000     0.0407886  
H722     H      0.502190000000     0.881760000000     0.808030000000     0.0396908  
H723     H      0.963620000000     0.917310000000     0.787000000000     0.0421088  
H724     H      0.550240000000     0.858020000000     0.735560000000     0.040726   
H725     H      0.541150000000     0.914220000000     0.722400000000     0.0401575  
H726     H      0.007800000000     0.889860000000     0.712870000000     0.0408423  
H727     H      0.969110000000     0.858780000000     0.795890000000     0.0404013  
H728     H      0.958110000000     0.893610000000     0.752880000000     0.0402634  
H729     H      0.550160000000     0.628460000000     0.750030000000     0.0391881  
H730     H      0.505960000000     0.631570000000     0.797300000000     0.0425805  
H731     H      0.961660000000     0.665730000000     0.782600000000     0.0401761  
H732     H      0.537820000000     0.608220000000     0.715490000000     0.0403067  
H733     H      0.535000000000     0.668100000000     0.713480000000     0.0402383  
H734     H      0.999900000000     0.647520000000     0.702830000000     0.0432569  
H735     H      0.970950000000     0.608620000000     0.790700000000     0.0383789  
H736     H      0.954860000000     0.643230000000     0.747450000000     0.0421724  
H737     H      0.631470000000     0.991870000000     0.533210000000     0.0438404  
H738     H      0.627090000000     0.542630000000     0.490720000000     0.0385967  
H739     H      0.668800000000     0.530990000000     0.955570000000     0.0413088  
H740     H      0.606460000000     0.959400000000     0.522800000000     0.0386928  
H741     H      0.661990000000     0.947740000000     0.511380000000     0.0417681  
H742     H      0.639000000000     0.949180000000     0.975760000000     0.0405933  
H743     H      0.607210000000     0.532830000000     0.955140000000     0.0411663  
H744     H      0.647970000000     0.498800000000     0.938790000000     0.0380645  
H745     H      0.887270000000     0.494350000000     0.966630000000     0.0425439  
H746     H      0.892590000000     0.544360000000     0.508840000000     0.0387849  
H747     H      0.853620000000     0.531530000000     0.546710000000     0.0411609  
H748     H      0.913630000000     0.962310000000     0.974930000000     0.0383634  
H749     H      0.859190000000     0.949080000000     0.989550000000     0.0464482  
H750     H      0.884250000000     0.950640000000     0.023740000000     0.0434812  
H751     H      0.914920000000     0.535400000000     0.543200000000     0.0409132  
H752     H      0.876410000000     0.999800000000     0.561820000000     0.0409427  
H753     H      0.544380000000     0.844960000000     0.534530000000     0.0389809  
H754     H      0.963760000000     0.861850000000     0.498650000000     0.0440266  
H755     H      0.976680000000     0.903820000000     0.960930000000     0.0380757  
H756     H      0.554500000000     0.860870000000     0.496910000000     0.0422253  
H757     H      0.505820000000     0.887500000000     0.543610000000     0.0437523  
H758     H      0.543990000000     0.903340000000     0.035070000000     0.0373108  
H759     H      0.975460000000     0.845210000000     0.961880000000     0.0395172  
H760     H      0.014800000000     0.887140000000     0.953730000000     0.0396664  
H761     H      0.505330000000     0.625480000000     0.961060000000     0.0425597  
H762     H      0.553140000000     0.622890000000     0.002900000000     0.0396191  
H763     H      0.537340000000     0.652830000000     0.548330000000     0.0403964  
H764     H      0.973670000000     0.597970000000     0.967050000000     0.0406145  
H765     H      0.959380000000     0.652140000000     0.983910000000     0.0408677  
H766     H      0.958210000000     0.624500000000     0.515840000000     0.0414468  
H767     H      0.548620000000     0.596080000000     0.534830000000     0.0409151  
H768     H      0.005690000000     0.626290000000     0.556460000000     0.0392195  
N1       N      0.254610000000     0.492360000000     0.347550000000    -0.16567    
N2       N      0.277920000000     0.490840000000     0.408860000000    -0.165983   
N3       N      0.256880000000     0.492470000000     0.158450000000    -0.16538    
N4       N      0.241620000000     0.490960000000     0.094460000000    -0.165669   
N5       N      0.508570000000     0.254140000000     0.351250000000    -0.165813   
N6       N      0.508480000000     0.235270000000     0.414100000000    -0.166372   
N7       N      0.498550000000     0.255910000000     0.101520000000    -0.166048   
N8       N      0.498420000000     0.275780000000     0.163960000000    -0.166394   
N9       N      0.098380000000     0.011100000000     0.266230000000    -0.166898   
N10      N      0.159800000000     0.993560000000     0.251240000000    -0.164585   
N11      N      0.410550000000     0.513700000000     0.241340000000    -0.165725   
N12      N      0.349440000000     0.494720000000     0.255390000000    -0.165789   
N13      N      0.500990000000     0.418310000000     0.252780000000    -0.166254   
N14      N      0.510690000000     0.355710000000     0.267060000000    -0.166274   
N15      N      0.996900000000     0.169640000000     0.246730000000    -0.163719   
N16      N      0.006550000000     0.105710000000     0.255100000000    -0.167982   
N17      N      0.168310000000     0.988540000000     0.482480000000    -0.165947   
N18      N      0.104450000000     0.999040000000     0.492170000000    -0.164735   
N19      N      0.353590000000     0.489340000000     0.019390000000    -0.165758   
N20      N      0.416480000000     0.501500000000     0.006150000000    -0.168597   
N21      N      0.509790000000     0.407680000000     0.998540000000    -0.166273   
N22      N      0.508940000000     0.341000000000     0.999000000000    -0.163032   
N23      N      0.997420000000     0.154920000000     0.517200000000    -0.165384   
N24      N      0.012610000000     0.094790000000     0.499190000000    -0.169238   
N25      N      0.254610000000     0.492360000000     0.847550000000    -0.165661   
N26      N      0.277920000000     0.490840000000     0.908860000000    -0.165711   
N27      N      0.256880000000     0.492470000000     0.658450000000    -0.165312   
N28      N      0.241620000000     0.490960000000     0.594460000000    -0.165669   
N29      N      0.508570000000     0.254140000000     0.851250000000    -0.165793   
N30      N      0.508480000000     0.235270000000     0.914100000000    -0.166113   
N31      N      0.498550000000     0.255910000000     0.601520000000    -0.166053   
N32      N      0.498420000000     0.275780000000     0.663960000000    -0.166388   
N33      N      0.098380000000     0.011100000000     0.766230000000    -0.166847   
N34      N      0.159800000000     0.993560000000     0.751240000000    -0.164574   
N35      N      0.410550000000     0.513700000000     0.741340000000    -0.16574    
N36      N      0.349440000000     0.494720000000     0.755390000000    -0.165769   
N37      N      0.500990000000     0.418310000000     0.752780000000    -0.166247   
N38      N      0.510690000000     0.355710000000     0.767060000000    -0.166268   
N39      N      0.996900000000     0.169640000000     0.746730000000    -0.163706   
N40      N      0.006550000000     0.105710000000     0.755100000000    -0.167978   
N41      N      0.168310000000     0.988540000000     0.982480000000    -0.166496   
N42      N      0.104450000000     0.999040000000     0.992170000000    -0.163123   
N43      N      0.353590000000     0.489340000000     0.519390000000    -0.166591   
N44      N      0.416480000000     0.501500000000     0.506150000000    -0.166954   
N45      N      0.509790000000     0.407680000000     0.498540000000    -0.167064   
N46      N      0.508940000000     0.341000000000     0.499000000000    -0.16719    
N47      N      0.997420000000     0.154920000000     0.017200000000    -0.16766    
N48      N      0.012610000000     0.094790000000     0.999180000000    -0.16772    
N49      N      0.254610000000     0.992360000000     0.347550000000    -0.165067   
N50      N      0.277920000000     0.990840000000     0.408860000000    -0.165386   
N51      N      0.256880000000     0.992480000000     0.158450000000    -0.164829   
N52      N      0.241620000000     0.990960000000     0.094460000000    -0.165052   
N53      N      0.508570000000     0.754140000000     0.351250000000    -0.165813   
N54      N      0.508480000000     0.735270000000     0.414100000000    -0.166362   
N55      N      0.498550000000     0.755910000000     0.101520000000    -0.166045   
N56      N      0.498420000000     0.775780000000     0.163960000000    -0.166392   
N57      N      0.098380000000     0.511100000000     0.266230000000    -0.165698   
N58      N      0.159800000000     0.493560000000     0.251240000000    -0.165412   
N59      N      0.410550000000     0.013700000000     0.241340000000    -0.166942   
N60      N      0.349440000000     0.994720000000     0.255390000000    -0.16496    
N61      N      0.500990000000     0.918310000000     0.252780000000    -0.166117   
N62      N      0.510690000000     0.855710000000     0.267060000000    -0.166265   
N63      N      0.996900000000     0.669640000000     0.246730000000    -0.163725   
N64      N      0.006550000000     0.605710000000     0.255100000000    -0.167987   
N65      N      0.168310000000     0.488540000000     0.482480000000    -0.166728   
N66      N      0.104450000000     0.499040000000     0.492170000000    -0.166983   
N67      N      0.353590000000     0.989340000000     0.019390000000    -0.16483    
N68      N      0.416480000000     0.001500000000     0.006150000000    -0.169335   
N69      N      0.509790000000     0.907680000000     0.998540000000    -0.166125   
N70      N      0.508940000000     0.841000000000     0.999000000000    -0.163041   
N71      N      0.997420000000     0.654920000000     0.517200000000    -0.165385   
N72      N      0.012610000000     0.594790000000     0.499190000000    -0.169243   
N73      N      0.254610000000     0.992360000000     0.847550000000    -0.165059   
N74      N      0.277920000000     0.990840000000     0.908860000000    -0.165116   
N75      N      0.256880000000     0.992480000000     0.658450000000    -0.16476    
N76      N      0.241620000000     0.990960000000     0.594460000000    -0.165051   
N77      N      0.508570000000     0.754140000000     0.851250000000    -0.165793   
N78      N      0.508480000000     0.735270000000     0.914100000000    -0.166103   
N79      N      0.498550000000     0.755910000000     0.601520000000    -0.16605    
N80      N      0.498420000000     0.775780000000     0.663960000000    -0.166386   
N81      N      0.098380000000     0.511100000000     0.766230000000    -0.165647   
N82      N      0.159800000000     0.493560000000     0.751240000000    -0.165401   
N83      N      0.410550000000     0.013700000000     0.741340000000    -0.166959   
N84      N      0.349440000000     0.994720000000     0.755390000000    -0.164939   
N85      N      0.500990000000     0.918310000000     0.752780000000    -0.16611    
N86      N      0.510690000000     0.855710000000     0.767060000000    -0.166259   
N87      N      0.996900000000     0.669640000000     0.746730000000    -0.163713   
N88      N      0.006550000000     0.605710000000     0.755100000000    -0.167984   
N89      N      0.168310000000     0.488540000000     0.982480000000    -0.167276   
N90      N      0.104450000000     0.499040000000     0.992170000000    -0.165359   
N91      N      0.353590000000     0.989340000000     0.519390000000    -0.165658   
N92      N      0.416480000000     0.001500000000     0.506150000000    -0.167701   
N93      N      0.509790000000     0.907680000000     0.498540000000    -0.166914   
N94      N      0.508940000000     0.841000000000     0.499000000000    -0.167196   
N95      N      0.997420000000     0.654920000000     0.017200000000    -0.167665   
N96      N      0.012610000000     0.594790000000     0.999180000000    -0.167722   
N97      N      0.754610000000     0.492360000000     0.347550000000    -0.165672   
N98      N      0.777930000000     0.490840000000     0.408860000000    -0.165959   
N99      N      0.756880000000     0.492470000000     0.158450000000    -0.165374   
N100     N      0.741620000000     0.490960000000     0.094460000000    -0.16567    
N101     N      0.008570000000     0.254140000000     0.351250000000    -0.166955   
N102     N      0.008480000000     0.235270000000     0.414100000000    -0.167518   
N103     N      0.998560000000     0.255910000000     0.101520000000    -0.164846   
N104     N      0.998420000000     0.275780000000     0.163960000000    -0.165177   
N105     N      0.598380000000     0.011100000000     0.266230000000    -0.166924   
N106     N      0.659800000000     0.993560000000     0.251240000000    -0.164592   
N107     N      0.910550000000     0.513700000000     0.241340000000    -0.165444   
N108     N      0.849440000000     0.494720000000     0.255390000000    -0.165778   
N109     N      0.000990000000     0.418310000000     0.252780000000    -0.167046   
N110     N      0.010690000000     0.355710000000     0.267060000000    -0.167869   
N111     N      0.496900000000     0.169640000000     0.246730000000    -0.16586    
N112     N      0.506550000000     0.105710000000     0.255100000000    -0.165354   
N113     N      0.668310000000     0.988540000000     0.482480000000    -0.165953   
N114     N      0.604450000000     0.999040000000     0.492170000000    -0.164772   
N115     N      0.853590000000     0.489340000000     0.019390000000    -0.165738   
N116     N      0.916480000000     0.501500000000     0.006150000000    -0.168317   
N117     N      0.009790000000     0.407680000000     0.998540000000    -0.168475   
N118     N      0.008940000000     0.341000000000     0.999000000000    -0.163835   
N119     N      0.497420000000     0.154920000000     0.517200000000    -0.167004   
N120     N      0.512610000000     0.094790000000     0.499190000000    -0.166872   
N121     N      0.754610000000     0.492360000000     0.847550000000    -0.165663   
N122     N      0.777930000000     0.490840000000     0.908860000000    -0.165687   
N123     N      0.756880000000     0.492470000000     0.658450000000    -0.165306   
N124     N      0.741620000000     0.490960000000     0.594460000000    -0.165671   
N125     N      0.008570000000     0.254140000000     0.851250000000    -0.166936   
N126     N      0.008480000000     0.235270000000     0.914100000000    -0.16726    
N127     N      0.998560000000     0.255910000000     0.601520000000    -0.164849   
N128     N      0.998420000000     0.275780000000     0.663960000000    -0.165167   
N129     N      0.598380000000     0.011100000000     0.766230000000    -0.166873   
N130     N      0.659800000000     0.993560000000     0.751240000000    -0.164581   
N131     N      0.910550000000     0.513700000000     0.741340000000    -0.165459   
N132     N      0.849440000000     0.494720000000     0.755390000000    -0.165758   
N133     N      0.000990000000     0.418310000000     0.752780000000    -0.167041   
N134     N      0.010690000000     0.355710000000     0.767060000000    -0.167864   
N135     N      0.496900000000     0.169640000000     0.746730000000    -0.165851   
N136     N      0.506550000000     0.105710000000     0.755100000000    -0.165348   
N137     N      0.668310000000     0.988540000000     0.982480000000    -0.166505   
N138     N      0.604450000000     0.999040000000     0.992170000000    -0.163156   
N139     N      0.853590000000     0.489340000000     0.519390000000    -0.166571   
N140     N      0.916480000000     0.501500000000     0.506150000000    -0.166673   
N141     N      0.009790000000     0.407680000000     0.498540000000    -0.169266   
N142     N      0.008940000000     0.341000000000     0.499000000000    -0.167973   
N143     N      0.497420000000     0.154920000000     0.017200000000    -0.169279   
N144     N      0.512610000000     0.094790000000     0.999180000000    -0.165351   
N145     N      0.754610000000     0.992360000000     0.347550000000    -0.165073   
N146     N      0.777930000000     0.990840000000     0.408860000000    -0.165368   
N147     N      0.756880000000     0.992480000000     0.158450000000    -0.164828   
N148     N      0.741620000000     0.990960000000     0.094460000000    -0.165058   
N149     N      0.008570000000     0.754140000000     0.351250000000    -0.166951   
N150     N      0.008480000000     0.735270000000     0.414100000000    -0.167505   
N151     N      0.998560000000     0.755910000000     0.101520000000    -0.164849   
N152     N      0.998420000000     0.775780000000     0.163960000000    -0.16518    
N153     N      0.598380000000     0.511100000000     0.266230000000    -0.16573    
N154     N      0.659800000000     0.493560000000     0.251240000000    -0.165414   
N155     N      0.910550000000     0.013700000000     0.241340000000    -0.166647   
N156     N      0.849440000000     0.994720000000     0.255390000000    -0.164959   
N157     N      0.000990000000     0.918310000000     0.252780000000    -0.166905   
N158     N      0.010690000000     0.855710000000     0.267060000000    -0.167851   
N159     N      0.496900000000     0.669640000000     0.246730000000    -0.165862   
N160     N      0.506550000000     0.605710000000     0.255100000000    -0.165365   
N161     N      0.668310000000     0.488540000000     0.482480000000    -0.16673    
N162     N      0.604450000000     0.499040000000     0.492170000000    -0.167009   
N163     N      0.853590000000     0.989340000000     0.019390000000    -0.16482    
N164     N      0.916480000000     0.001500000000     0.006150000000    -0.169048   
N165     N      0.009790000000     0.907680000000     0.998540000000    -0.168313   
N166     N      0.008940000000     0.841000000000     0.999000000000    -0.163838   
N167     N      0.497420000000     0.654920000000     0.517200000000    -0.167002   
N168     N      0.512610000000     0.594790000000     0.499190000000    -0.166881   
N169     N      0.754610000000     0.992360000000     0.847550000000    -0.165066   
N170     N      0.777930000000     0.990840000000     0.908860000000    -0.165097   
N171     N      0.756880000000     0.992480000000     0.658450000000    -0.164758   
N172     N      0.741620000000     0.990960000000     0.594460000000    -0.165057   
N173     N      0.008570000000     0.754140000000     0.851250000000    -0.166931   
N174     N      0.008480000000     0.735270000000     0.914100000000    -0.167247   
N175     N      0.998560000000     0.755910000000     0.601520000000    -0.164851   
N176     N      0.998420000000     0.775780000000     0.663960000000    -0.165171   
N177     N      0.598380000000     0.511100000000     0.766230000000    -0.165679   
N178     N      0.659800000000     0.493560000000     0.751240000000    -0.165403   
N179     N      0.910550000000     0.013700000000     0.741340000000    -0.166664   
N180     N      0.849440000000     0.994720000000     0.755390000000    -0.164939   
N181     N      0.000990000000     0.918310000000     0.752780000000    -0.166899   
N182     N      0.010690000000     0.855710000000     0.767060000000    -0.167845   
N183     N      0.496900000000     0.669640000000     0.746730000000    -0.165852   
N184     N      0.506550000000     0.605710000000     0.755100000000    -0.165359   
N185     N      0.668310000000     0.488540000000     0.982480000000    -0.167281   
N186     N      0.604450000000     0.499040000000     0.992170000000    -0.165381   
N187     N      0.853590000000     0.989340000000     0.519390000000    -0.165648   
N188     N      0.916480000000     0.001500000000     0.506150000000    -0.167412   
N189     N      0.009790000000     0.907680000000     0.498540000000    -0.169102   
N190     N      0.008940000000     0.841000000000     0.499000000000    -0.167974   
N191     N      0.497420000000     0.654920000000     0.017200000000    -0.16928    
N192     N      0.512610000000     0.594790000000     0.999180000000    -0.165358   
O1       O      0.055900000000     0.004380000000     0.469580000000    -0.395185   
O2       O      0.461030000000     0.998600000000     0.476840000000    -0.398425   
O3       O      0.505370000000     0.048610000000     0.473660000000    -0.398861   
O4       O      0.009580000000     0.454290000000     0.472610000000    -0.398466   
O5       O      0.010100000000     0.454040000000     0.024960000000    -0.401203   
O6       O      0.517240000000     0.048210000000     0.024620000000    -0.402272   
O7       O      0.465230000000     0.505530000000     0.028540000000    -0.396519   
O8       O      0.059760000000     0.496940000000     0.021240000000    -0.40535    
O9       O      0.055370000000     0.014490000000     0.234580000000    -0.397785   
O10      O      0.460710000000     0.009580000000     0.221810000000    -0.393782   
O11      O      0.507590000000     0.059450000000     0.228390000000    -0.39452    
O12      O      0.010590000000     0.464780000000     0.228330000000    -0.395738   
O13      O      0.995990000000     0.464710000000     0.278560000000    -0.391549   
O14      O      0.503230000000     0.058920000000     0.280550000000    -0.395816   
O15      O      0.453550000000     0.516090000000     0.273220000000    -0.397106   
O16      O      0.048150000000     0.507240000000     0.285870000000    -0.391285   
O17      O      0.032500000000     0.240970000000     0.462120000000    -0.396383   
O18      O      0.026790000000     0.251520000000     0.056180000000    -0.405556   
O19      O      0.026540000000     0.199660000000     0.015380000000    -0.402565   
O20      O      0.032420000000     0.293430000000     0.505180000000    -0.3975     
O21      O      0.480140000000     0.296030000000     0.500220000000    -0.398828   
O22      O      0.474330000000     0.202320000000     0.009720000000    -0.400981   
O23      O      0.474470000000     0.253900000000     0.053150000000    -0.395789   
O24      O      0.480220000000     0.243910000000     0.458850000000    -0.401701   
O25      O      0.026770000000     0.266950000000     0.208590000000    -0.404641   
O26      O      0.032570000000     0.255730000000     0.302770000000    -0.394501   
O27      O      0.026280000000     0.214240000000     0.248990000000    -0.39981    
O28      O      0.033240000000     0.307900000000     0.259890000000    -0.397705   
O29      O      0.481040000000     0.311190000000     0.265100000000    -0.396898   
O30      O      0.474140000000     0.217260000000     0.255040000000    -0.396703   
O31      O      0.480330000000     0.259220000000     0.306000000000    -0.402687   
O32      O      0.474480000000     0.269810000000     0.211980000000    -0.397079   
O33      O      0.253060000000     0.464660000000     0.048880000000    -0.396908   
O34      O      0.268400000000     0.464540000000     0.454840000000    -0.397616   
O35      O      0.307610000000     0.464350000000     0.508750000000    -0.404641   
O36      O      0.214100000000     0.464000000000     0.994810000000    -0.401802   
O37      O      0.214350000000     0.015730000000     0.989320000000    -0.393935   
O38      O      0.307090000000     0.016100000000     0.514030000000    -0.396207   
O39      O      0.272070000000     0.016350000000     0.455710000000    -0.400011   
O40      O      0.249140000000     0.016440000000     0.047800000000    -0.399336   
O41      O      0.256460000000     0.466980000000     0.300330000000    -0.398446   
O42      O      0.253410000000     0.467060000000     0.205590000000    -0.397983   
O43      O      0.302940000000     0.467810000000     0.250570000000    -0.39177    
O44      O      0.206720000000     0.467160000000     0.255430000000    -0.391437   
O45      O      0.207020000000     0.018870000000     0.249730000000    -0.400199   
O46      O      0.301980000000     0.019500000000     0.256480000000    -0.400693   
O47      O      0.257090000000     0.018860000000     0.205420000000    -0.397372   
O48      O      0.252180000000     0.018740000000     0.300660000000    -0.397706   
O49      O      0.055900000000     0.004380000000     0.969580000000    -0.396017   
O50      O      0.461030000000     0.998600000000     0.976840000000    -0.395604   
O51      O      0.505370000000     0.048610000000     0.973670000000    -0.399761   
O52      O      0.009580000000     0.454290000000     0.972610000000    -0.39944    
O53      O      0.010100000000     0.454040000000     0.524970000000    -0.397962   
O54      O      0.517240000000     0.048210000000     0.524620000000    -0.399103   
O55      O      0.465230000000     0.505530000000     0.528540000000    -0.39713    
O56      O      0.059760000000     0.496940000000     0.521240000000    -0.402329   
O57      O      0.055370000000     0.014490000000     0.734570000000    -0.397627   
O58      O      0.460710000000     0.009580000000     0.721810000000    -0.393773   
O59      O      0.507590000000     0.059450000000     0.728390000000    -0.39451    
O60      O      0.010590000000     0.464780000000     0.728330000000    -0.395727   
O61      O      0.995990000000     0.464710000000     0.778560000000    -0.391531   
O62      O      0.503230000000     0.058920000000     0.780550000000    -0.395788   
O63      O      0.453550000000     0.516090000000     0.773220000000    -0.397084   
O64      O      0.048150000000     0.507240000000     0.785870000000    -0.391206   
O65      O      0.032500000000     0.240970000000     0.962120000000    -0.39377    
O66      O      0.026790000000     0.251520000000     0.556180000000    -0.405998   
O67      O      0.026540000000     0.199660000000     0.515370000000    -0.402252   
O68      O      0.032420000000     0.293430000000     0.005180000000    -0.397334   
O69      O      0.480140000000     0.296030000000     0.000220000000    -0.399021   
O70      O      0.474330000000     0.202320000000     0.509720000000    -0.40022    
O71      O      0.474470000000     0.253900000000     0.553150000000    -0.396143   
O72      O      0.480220000000     0.243910000000     0.958850000000    -0.399115   
O73      O      0.026770000000     0.266950000000     0.708590000000    -0.404634   
O74      O      0.032570000000     0.255730000000     0.802770000000    -0.394459   
O75      O      0.026280000000     0.214240000000     0.748990000000    -0.399792   
O76      O      0.033240000000     0.307900000000     0.759890000000    -0.397678   
O77      O      0.481040000000     0.311190000000     0.765100000000    -0.396874   
O78      O      0.474140000000     0.217260000000     0.755040000000    -0.396677   
O79      O      0.480330000000     0.259220000000     0.806000000000    -0.402647   
O80      O      0.474480000000     0.269810000000     0.711980000000    -0.39706    
O81      O      0.253060000000     0.464660000000     0.548880000000    -0.397309   
O82      O      0.268400000000     0.464540000000     0.954840000000    -0.395092   
O83      O      0.307610000000     0.464350000000     0.008750000000    -0.404741   
O84      O      0.214100000000     0.464000000000     0.494810000000    -0.40496    
O85      O      0.214350000000     0.015730000000     0.489320000000    -0.396617   
O86      O      0.307090000000     0.016100000000     0.014030000000    -0.395939   
O87      O      0.272070000000     0.016350000000     0.955710000000    -0.397365   
O88      O      0.249140000000     0.016440000000     0.547800000000    -0.39965    
O89      O      0.256460000000     0.466980000000     0.800330000000    -0.398413   
O90      O      0.253410000000     0.467060000000     0.705590000000    -0.398045   
O91      O      0.302940000000     0.467810000000     0.750570000000    -0.391746   
O92      O      0.206720000000     0.467160000000     0.755430000000    -0.391412   
O93      O      0.207020000000     0.018870000000     0.749730000000    -0.400178   
O94      O      0.301980000000     0.019500000000     0.756480000000    -0.400672   
O95      O      0.257090000000     0.018860000000     0.705420000000    -0.397438   
O96      O      0.252180000000     0.018740000000     0.800660000000    -0.397669   
O97      O      0.055900000000     0.504380000000     0.469580000000    -0.396089   
O98      O      0.461030000000     0.498600000000     0.476840000000    -0.401556   
O99      O      0.505370000000     0.548610000000     0.473660000000    -0.399122   
O100     O      0.009580000000     0.954290000000     0.472610000000    -0.397032   
O101     O      0.010100000000     0.954040000000     0.024960000000    -0.399698   
O102     O      0.517240000000     0.548210000000     0.024620000000    -0.402464   
O103     O      0.465230000000     0.005530000000     0.028540000000    -0.395966   
O104     O      0.059760000000     0.996940000000     0.021240000000    -0.401863   
O105     O      0.055370000000     0.514490000000     0.234580000000    -0.397595   
O106     O      0.460710000000     0.509570000000     0.221810000000    -0.393324   
O107     O      0.507590000000     0.559450000000     0.228390000000    -0.394746   
O108     O      0.010590000000     0.964780000000     0.228330000000    -0.394362   
O109     O      0.995990000000     0.964710000000     0.278560000000    -0.390209   
O110     O      0.503230000000     0.558920000000     0.280550000000    -0.396037   
O111     O      0.453550000000     0.016090000000     0.273220000000    -0.3973     
O112     O      0.048150000000     0.007240000000     0.285870000000    -0.391718   
O113     O      0.032500000000     0.740960000000     0.462120000000    -0.396378   
O114     O      0.026790000000     0.751510000000     0.056180000000    -0.405541   
O115     O      0.026540000000     0.699660000000     0.015380000000    -0.402524   
O116     O      0.032420000000     0.793430000000     0.505180000000    -0.397535   
O117     O      0.480140000000     0.796030000000     0.500220000000    -0.39892    
O118     O      0.474330000000     0.702320000000     0.009720000000    -0.400888   
O119     O      0.474470000000     0.753900000000     0.053150000000    -0.395792   
O120     O      0.480220000000     0.743910000000     0.458850000000    -0.401694   
O121     O      0.026770000000     0.766960000000     0.208590000000    -0.404637   
O122     O      0.032570000000     0.755730000000     0.302770000000    -0.394503   
O123     O      0.026280000000     0.714240000000     0.248990000000    -0.399814   
O124     O      0.033240000000     0.807900000000     0.259890000000    -0.39769    
O125     O      0.481040000000     0.811190000000     0.265100000000    -0.396886   
O126     O      0.474140000000     0.717260000000     0.255040000000    -0.396711   
O127     O      0.480330000000     0.759220000000     0.306000000000    -0.402688   
O128     O      0.474480000000     0.769810000000     0.211980000000    -0.397087   
O129     O      0.253060000000     0.964660000000     0.048880000000    -0.397423   
O130     O      0.268400000000     0.964540000000     0.454840000000    -0.398141   
O131     O      0.307610000000     0.964350000000     0.508750000000    -0.405158   
O132     O      0.214100000000     0.964000000000     0.994810000000    -0.402341   
O133     O      0.214350000000     0.515730000000     0.989320000000    -0.392245   
O134     O      0.307090000000     0.516100000000     0.514030000000    -0.394535   
O135     O      0.272070000000     0.516350000000     0.455710000000    -0.398308   
O136     O      0.249140000000     0.516440000000     0.047800000000    -0.397637   
O137     O      0.256460000000     0.966980000000     0.300330000000    -0.398965   
O138     O      0.253410000000     0.967060000000     0.205590000000    -0.398557   
O139     O      0.302940000000     0.967810000000     0.250570000000    -0.392252   
O140     O      0.206720000000     0.967160000000     0.255430000000    -0.391918   
O141     O      0.207020000000     0.518870000000     0.249730000000    -0.39852    
O142     O      0.301980000000     0.519500000000     0.256480000000    -0.399018   
O143     O      0.257090000000     0.518870000000     0.205420000000    -0.395536   
O144     O      0.252180000000     0.518740000000     0.300660000000    -0.396011   
O145     O      0.055900000000     0.504380000000     0.969580000000    -0.39692    
O146     O      0.461030000000     0.498600000000     0.976840000000    -0.398715   
O147     O      0.505370000000     0.548610000000     0.973670000000    -0.400024   
O148     O      0.009580000000     0.954290000000     0.972610000000    -0.398007   
O149     O      0.010100000000     0.954040000000     0.524970000000    -0.396457   
O150     O      0.517240000000     0.548210000000     0.524620000000    -0.399288   
O151     O      0.465230000000     0.005530000000     0.528540000000    -0.396573   
O152     O      0.059760000000     0.996940000000     0.521240000000    -0.398838   
O153     O      0.055370000000     0.514490000000     0.734570000000    -0.397437   
O154     O      0.460710000000     0.509570000000     0.721810000000    -0.393314   
O155     O      0.507590000000     0.559450000000     0.728390000000    -0.394736   
O156     O      0.010590000000     0.964780000000     0.728330000000    -0.394349   
O157     O      0.995990000000     0.964710000000     0.778560000000    -0.390191   
O158     O      0.503230000000     0.558920000000     0.780550000000    -0.39601    
O159     O      0.453550000000     0.016090000000     0.773220000000    -0.397278   
O160     O      0.048150000000     0.007240000000     0.785870000000    -0.39164    
O161     O      0.032500000000     0.740960000000     0.962120000000    -0.393765   
O162     O      0.026790000000     0.751510000000     0.556180000000    -0.405984   
O163     O      0.026540000000     0.699660000000     0.515370000000    -0.40221    
O164     O      0.032420000000     0.793430000000     0.005180000000    -0.397369   
O165     O      0.480140000000     0.796030000000     0.000220000000    -0.399113   
O166     O      0.474330000000     0.702320000000     0.509720000000    -0.400125   
O167     O      0.474470000000     0.753900000000     0.553150000000    -0.396147   
O168     O      0.480220000000     0.743910000000     0.958850000000    -0.399107   
O169     O      0.026770000000     0.766960000000     0.708590000000    -0.404629   
O170     O      0.032570000000     0.755730000000     0.802770000000    -0.394461   
O171     O      0.026280000000     0.714240000000     0.748990000000    -0.399796   
O172     O      0.033240000000     0.807900000000     0.759890000000    -0.397662   
O173     O      0.481040000000     0.811190000000     0.765100000000    -0.396862   
O174     O      0.474140000000     0.717260000000     0.755040000000    -0.396685   
O175     O      0.480330000000     0.759220000000     0.806000000000    -0.402648   
O176     O      0.474480000000     0.769810000000     0.711980000000    -0.397068   
O177     O      0.253060000000     0.964660000000     0.548880000000    -0.397825   
O178     O      0.268400000000     0.964540000000     0.954840000000    -0.39562    
O179     O      0.307610000000     0.964350000000     0.008750000000    -0.405256   
O180     O      0.214100000000     0.964000000000     0.494810000000    -0.405493   
O181     O      0.214350000000     0.515730000000     0.489320000000    -0.394931   
O182     O      0.307090000000     0.516100000000     0.014030000000    -0.394274   
O183     O      0.272070000000     0.516350000000     0.955710000000    -0.395658   
O184     O      0.249140000000     0.516440000000     0.547800000000    -0.397945   
O185     O      0.256460000000     0.966980000000     0.800330000000    -0.398932   
O186     O      0.253410000000     0.967060000000     0.705590000000    -0.39862    
O187     O      0.302940000000     0.967810000000     0.750570000000    -0.392228   
O188     O      0.206720000000     0.967160000000     0.755430000000    -0.391893   
O189     O      0.207020000000     0.518870000000     0.749730000000    -0.398498   
O190     O      0.301980000000     0.519500000000     0.756480000000    -0.398995   
O191     O      0.257090000000     0.518870000000     0.705420000000    -0.395598   
O192     O      0.252180000000     0.518740000000     0.800660000000    -0.395975   
O193     O      0.555900000000     0.004380000000     0.469580000000    -0.39559    
O194     O      0.961040000000     0.998600000000     0.476840000000    -0.395826   
O195     O      0.005370000000     0.048610000000     0.473660000000    -0.399751   
O196     O      0.509580000000     0.454290000000     0.472610000000    -0.397758   
O197     O      0.510100000000     0.454040000000     0.024960000000    -0.400767   
O198     O      0.017240000000     0.048210000000     0.024620000000    -0.402584   
O199     O      0.965230000000     0.505530000000     0.028540000000    -0.393759   
O200     O      0.559760000000     0.496940000000     0.021240000000    -0.405828   
O201     O      0.555370000000     0.014490000000     0.234580000000    -0.398243   
O202     O      0.960710000000     0.009580000000     0.221810000000    -0.391069   
O203     O      0.007590000000     0.059450000000     0.228390000000    -0.394998   
O204     O      0.510590000000     0.464780000000     0.228330000000    -0.396507   
O205     O      0.495990000000     0.464710000000     0.278560000000    -0.397527   
O206     O      0.003230000000     0.058920000000     0.280550000000    -0.39613    
O207     O      0.953550000000     0.516090000000     0.273220000000    -0.394386   
O208     O      0.548150000000     0.507240000000     0.285870000000    -0.391776   
O209     O      0.532500000000     0.240970000000     0.462120000000    -0.397179   
O210     O      0.526790000000     0.251520000000     0.056180000000    -0.402533   
O211     O      0.526540000000     0.199660000000     0.015380000000    -0.399536   
O212     O      0.532420000000     0.293430000000     0.505180000000    -0.398409   
O213     O      0.980130000000     0.296030000000     0.500220000000    -0.395525   
O214     O      0.974330000000     0.202320000000     0.009720000000    -0.40174    
O215     O      0.974470000000     0.253900000000     0.053150000000    -0.396518   
O216     O      0.980220000000     0.243910000000     0.458850000000    -0.398627   
O217     O      0.526770000000     0.266950000000     0.208590000000    -0.401603   
O218     O      0.532570000000     0.255730000000     0.302770000000    -0.395286   
O219     O      0.526280000000     0.214240000000     0.248990000000    -0.396817   
O220     O      0.533240000000     0.307900000000     0.259890000000    -0.398522   
O221     O      0.981040000000     0.311190000000     0.265100000000    -0.393818   
O222     O      0.974140000000     0.217260000000     0.255040000000    -0.397447   
O223     O      0.980330000000     0.259220000000     0.306000000000    -0.399606   
O224     O      0.974480000000     0.269810000000     0.211980000000    -0.397835   
O225     O      0.753060000000     0.464660000000     0.048880000000    -0.396905   
O226     O      0.768400000000     0.464540000000     0.454840000000    -0.397608   
O227     O      0.807610000000     0.464350000000     0.508750000000    -0.404612   
O228     O      0.714100000000     0.464000000000     0.994810000000    -0.401808   
O229     O      0.714350000000     0.015730000000     0.989320000000    -0.393927   
O230     O      0.807090000000     0.016100000000     0.514030000000    -0.396183   
O231     O      0.772060000000     0.016350000000     0.455710000000    -0.400005   
O232     O      0.749140000000     0.016440000000     0.047800000000    -0.399333   
O233     O      0.756460000000     0.466980000000     0.300330000000    -0.398445   
O234     O      0.753410000000     0.467060000000     0.205590000000    -0.397983   
O235     O      0.802940000000     0.467810000000     0.250570000000    -0.391747   
O236     O      0.706720000000     0.467160000000     0.255430000000    -0.391448   
O237     O      0.707020000000     0.018870000000     0.249730000000    -0.400199   
O238     O      0.801980000000     0.019500000000     0.256480000000    -0.400663   
O239     O      0.757090000000     0.018860000000     0.205420000000    -0.397357   
O240     O      0.752180000000     0.018740000000     0.300660000000    -0.397696   
O241     O      0.555900000000     0.004380000000     0.969580000000    -0.396425   
O242     O      0.961040000000     0.998600000000     0.976840000000    -0.393012   
O243     O      0.005370000000     0.048610000000     0.973670000000    -0.400646   
O244     O      0.509580000000     0.454290000000     0.972610000000    -0.398736   
O245     O      0.510100000000     0.454040000000     0.524970000000    -0.397511   
O246     O      0.017240000000     0.048210000000     0.524620000000    -0.39943    
O247     O      0.965230000000     0.505530000000     0.528540000000    -0.394358   
O248     O      0.559760000000     0.496940000000     0.521240000000    -0.402798   
O249     O      0.555370000000     0.014490000000     0.734570000000    -0.398086   
O250     O      0.960710000000     0.009580000000     0.721810000000    -0.391056   
O251     O      0.007590000000     0.059450000000     0.728390000000    -0.39499    
O252     O      0.510590000000     0.464780000000     0.728330000000    -0.396496   
O253     O      0.495990000000     0.464710000000     0.778560000000    -0.397514   
O254     O      0.003230000000     0.058920000000     0.780550000000    -0.396103   
O255     O      0.953550000000     0.516090000000     0.773220000000    -0.394361   
O256     O      0.548150000000     0.507240000000     0.785870000000    -0.391698   
O257     O      0.532500000000     0.240970000000     0.962120000000    -0.394556   
O258     O      0.526790000000     0.251520000000     0.556180000000    -0.402966   
O259     O      0.526540000000     0.199660000000     0.515370000000    -0.399208   
O260     O      0.532420000000     0.293430000000     0.005180000000    -0.398237   
O261     O      0.980130000000     0.296030000000     0.000220000000    -0.395737   
O262     O      0.974330000000     0.202320000000     0.509720000000    -0.400983   
O263     O      0.974470000000     0.253900000000     0.553150000000    -0.396874   
O264     O      0.980220000000     0.243910000000     0.958850000000    -0.396047   
O265     O      0.526770000000     0.266950000000     0.708590000000    -0.40159    
O266     O      0.532570000000     0.255730000000     0.802770000000    -0.395245   
O267     O      0.526280000000     0.214240000000     0.748990000000    -0.396796   
O268     O      0.533240000000     0.307900000000     0.759890000000    -0.398496   
O269     O      0.981040000000     0.311190000000     0.765100000000    -0.393791   
O270     O      0.974140000000     0.217260000000     0.755040000000    -0.397421   
O271     O      0.980330000000     0.259220000000     0.806000000000    -0.399564   
O272     O      0.974480000000     0.269810000000     0.711980000000    -0.397817   
O273     O      0.753060000000     0.464660000000     0.548880000000    -0.397308   
O274     O      0.768400000000     0.464540000000     0.954840000000    -0.395081   
O275     O      0.807610000000     0.464350000000     0.008750000000    -0.404712   
O276     O      0.714100000000     0.464000000000     0.494810000000    -0.40497    
O277     O      0.714350000000     0.015730000000     0.489320000000    -0.396612   
O278     O      0.807090000000     0.016100000000     0.014030000000    -0.395914   
O279     O      0.772060000000     0.016350000000     0.955710000000    -0.397357   
O280     O      0.749140000000     0.016440000000     0.547800000000    -0.399646   
O281     O      0.756460000000     0.466980000000     0.800330000000    -0.398412   
O282     O      0.753410000000     0.467060000000     0.705590000000    -0.398045   
O283     O      0.802940000000     0.467810000000     0.750570000000    -0.391723   
O284     O      0.706720000000     0.467160000000     0.755430000000    -0.391423   
O285     O      0.707020000000     0.018870000000     0.749730000000    -0.400178   
O286     O      0.801980000000     0.019500000000     0.756480000000    -0.400642   
O287     O      0.757090000000     0.018860000000     0.705420000000    -0.397423   
O288     O      0.752180000000     0.018740000000     0.800660000000    -0.39766    
O289     O      0.555900000000     0.504380000000     0.469580000000    -0.396493   
O290     O      0.961040000000     0.498600000000     0.476840000000    -0.398915   
O291     O      0.005370000000     0.548610000000     0.473660000000    -0.400011   
O292     O      0.509580000000     0.954290000000     0.472610000000    -0.396333   
O293     O      0.510100000000     0.954040000000     0.024960000000    -0.39927    
O294     O      0.017240000000     0.548210000000     0.024620000000    -0.402777   
O295     O      0.965230000000     0.005530000000     0.028540000000    -0.393207   
O296     O      0.559760000000     0.996940000000     0.021240000000    -0.402356   
O297     O      0.555370000000     0.514490000000     0.234580000000    -0.398053   
O298     O      0.960710000000     0.509570000000     0.221810000000    -0.390618   
O299     O      0.007590000000     0.559450000000     0.228390000000    -0.395223   
O300     O      0.510590000000     0.964780000000     0.228330000000    -0.39513    
O301     O      0.495990000000     0.964710000000     0.278560000000    -0.396142   
O302     O      0.003230000000     0.558920000000     0.280550000000    -0.396347   
O303     O      0.953550000000     0.016090000000     0.273220000000    -0.394575   
O304     O      0.548150000000     0.007240000000     0.285870000000    -0.392208   
O305     O      0.532500000000     0.740960000000     0.462120000000    -0.397172   
O306     O      0.526790000000     0.751510000000     0.056180000000    -0.40253    
O307     O      0.526540000000     0.699660000000     0.015380000000    -0.399505   
O308     O      0.532420000000     0.793430000000     0.505180000000    -0.398441   
O309     O      0.980130000000     0.796030000000     0.500220000000    -0.395632   
O310     O      0.974330000000     0.702320000000     0.009720000000    -0.401644   
O311     O      0.974470000000     0.753900000000     0.053150000000    -0.396518   
O312     O      0.980220000000     0.743910000000     0.458850000000    -0.398631   
O313     O      0.526770000000     0.766960000000     0.208590000000    -0.40161    
O314     O      0.532570000000     0.755730000000     0.302770000000    -0.395285   
O315     O      0.526280000000     0.714240000000     0.248990000000    -0.39683    
O316     O      0.533240000000     0.807900000000     0.259890000000    -0.398503   
O317     O      0.981040000000     0.811190000000     0.265100000000    -0.393822   
O318     O      0.974140000000     0.717260000000     0.255040000000    -0.397452   
O319     O      0.980330000000     0.759220000000     0.306000000000    -0.399619   
O320     O      0.974480000000     0.769810000000     0.211980000000    -0.39784    
O321     O      0.753060000000     0.964660000000     0.048880000000    -0.397416   
O322     O      0.768400000000     0.964540000000     0.454840000000    -0.398128   
O323     O      0.807610000000     0.964350000000     0.508750000000    -0.405126   
O324     O      0.714100000000     0.964000000000     0.994810000000    -0.402342   
O325     O      0.714350000000     0.515730000000     0.989320000000    -0.392248   
O326     O      0.807090000000     0.516100000000     0.514030000000    -0.394525   
O327     O      0.772060000000     0.516350000000     0.455710000000    -0.398317   
O328     O      0.749140000000     0.516440000000     0.047800000000    -0.397645   
O329     O      0.756460000000     0.966980000000     0.300330000000    -0.39896    
O330     O      0.753410000000     0.967060000000     0.205590000000    -0.398552   
O331     O      0.802940000000     0.967810000000     0.250570000000    -0.392225   
O332     O      0.706720000000     0.967160000000     0.255430000000    -0.391925   
O333     O      0.707020000000     0.518870000000     0.249730000000    -0.398531   
O334     O      0.801980000000     0.519500000000     0.256480000000    -0.399003   
O335     O      0.757090000000     0.518870000000     0.205420000000    -0.395534   
O336     O      0.752180000000     0.518740000000     0.300660000000    -0.396014   
O337     O      0.555900000000     0.504380000000     0.969580000000    -0.397327   
O338     O      0.961040000000     0.498600000000     0.976840000000    -0.396081   
O339     O      0.005370000000     0.548610000000     0.973670000000    -0.400908   
O340     O      0.509580000000     0.954290000000     0.972610000000    -0.397312   
O341     O      0.510100000000     0.954040000000     0.524970000000    -0.396013   
O342     O      0.017240000000     0.548210000000     0.524620000000    -0.399616   
O343     O      0.965230000000     0.005530000000     0.528540000000    -0.393802   
O344     O      0.559760000000     0.996940000000     0.521240000000    -0.399323   
O345     O      0.555370000000     0.514490000000     0.734570000000    -0.397896   
O346     O      0.960710000000     0.509570000000     0.721810000000    -0.390604   
O347     O      0.007590000000     0.559450000000     0.728390000000    -0.395215   
O348     O      0.510590000000     0.964780000000     0.728330000000    -0.395117   
O349     O      0.495990000000     0.964710000000     0.778560000000    -0.396129   
O350     O      0.003230000000     0.558920000000     0.780550000000    -0.396321   
O351     O      0.953550000000     0.016090000000     0.773220000000    -0.394552   
O352     O      0.548150000000     0.007240000000     0.785870000000    -0.39213    
O353     O      0.532500000000     0.740960000000     0.962120000000    -0.394548   
O354     O      0.526790000000     0.751510000000     0.556180000000    -0.402964   
O355     O      0.526540000000     0.699660000000     0.515370000000    -0.399176   
O356     O      0.532420000000     0.793430000000     0.005180000000    -0.398269   
O357     O      0.980130000000     0.796030000000     0.000220000000    -0.395844   
O358     O      0.974330000000     0.702320000000     0.509720000000    -0.400884   
O359     O      0.974470000000     0.753900000000     0.553150000000    -0.396875   
O360     O      0.980220000000     0.743910000000     0.958850000000    -0.39605    
O361     O      0.526770000000     0.766960000000     0.708590000000    -0.401598   
O362     O      0.532570000000     0.755730000000     0.802770000000    -0.395244   
O363     O      0.526280000000     0.714240000000     0.748990000000    -0.396809   
O364     O      0.533240000000     0.807900000000     0.759890000000    -0.398477   
O365     O      0.981040000000     0.811190000000     0.765100000000    -0.393795   
O366     O      0.974140000000     0.717260000000     0.755040000000    -0.397427   
O367     O      0.980330000000     0.759220000000     0.806000000000    -0.399577   
O368     O      0.974480000000     0.769810000000     0.711980000000    -0.397821   
O369     O      0.753060000000     0.964660000000     0.548880000000    -0.39782    
O370     O      0.768400000000     0.964540000000     0.954840000000    -0.395605   
O371     O      0.807610000000     0.964350000000     0.008750000000    -0.405223   
O372     O      0.714100000000     0.964000000000     0.494810000000    -0.405499   
O373     O      0.714350000000     0.515730000000     0.489320000000    -0.394937   
O374     O      0.807090000000     0.516100000000     0.014030000000    -0.394264   
O375     O      0.772060000000     0.516350000000     0.955710000000    -0.395663   
O376     O      0.749140000000     0.516440000000     0.547800000000    -0.397954   
O377     O      0.756460000000     0.966980000000     0.800330000000    -0.398927   
O378     O      0.753410000000     0.967060000000     0.705590000000    -0.398616   
O379     O      0.802940000000     0.967810000000     0.750570000000    -0.392202   
O380     O      0.706720000000     0.967160000000     0.755430000000    -0.3919     
O381     O      0.707020000000     0.518870000000     0.749730000000    -0.398509   
O382     O      0.801980000000     0.519500000000     0.756480000000    -0.398981   
O383     O      0.757090000000     0.518870000000     0.705420000000    -0.395596   
O384     O      0.752180000000     0.518740000000     0.800660000000    -0.395978   


