data_structure

_audit_creation_method RASPA-1.0
_audit_creation_date 2023-6-5
_audit_author_name 'Poobodin Mano'

_cell_length_a    34.6224
_cell_length_b    35.0177
_cell_length_c    20.6569
_cell_angle_alpha 89.9806
_cell_angle_beta  90.0195
_cell_angle_gamma 119.98
_cell_volume      21693.4

_symmetry_cell_setting          triclinic
_symmetry_space_group_name_Hall 'P 1'
_symmetry_space_group_name_H-M  'P 1'
_symmetry_Int_Tables_number     1

_symmetry_equiv_pos_as_xyz 'x,y,z'

loop_
_atom_site_label
_atom_site_type_symbol
_atom_site_fract_x
_atom_site_fract_y
_atom_site_fract_z
_atom_site_charge
C1       C      0.933130000000     0.713550000000     0.703130000000     0.400277   
C2       C      0.762250000000     0.647660000000     0.639610000000     0.403729   
C3       C      0.828370000000     0.683570000000     0.793960000000     0.396859   
C4       C      0.869650000000     0.677960000000     0.546570000000     0.397416   
C5       C      0.111300000000     0.790920000000     0.735700000000     0.404996   
C6       C      0.278460000000     0.882860000000     0.821730000000     0.404871   
C7       C      0.221970000000     0.862490000000     0.659980000000     0.401676   
C8       C      0.166880000000     0.809960000000     0.900850000000     0.40584    
C9       C      0.426170000000     0.954420000000     0.968800000000     0.400333   
C10      C      0.589050000000     0.025110000000     0.070440000000     0.404229   
C11      C      0.539320000000     0.991560000000     0.899760000000     0.404239   
C12      C      0.475170000000     0.986880000000     0.135800000000     0.401198   
C13      C      0.252440000000     0.384850000000     0.386270000000     0.402448   
C14      C      0.085590000000     0.309530000000     0.297340000000     0.399197   
C15      C      0.139690000000     0.344270000000     0.462350000000     0.403821   
C16      C      0.195680000000     0.350160000000     0.220140000000     0.396696   
C17      C      0.767160000000     0.123100000000     0.105640000000     0.398975   
C18      C      0.940420000000     0.229430000000     0.151250000000     0.404845   
C19      C      0.865900000000     0.188670000000     0.001550000000     0.404972   
C20      C      0.839780000000     0.162210000000     0.254980000000     0.401149   
C21      C      0.599560000000     0.570560000000     0.523120000000     0.39975    
C22      C      0.431610000000     0.479010000000     0.439760000000     0.397522   
C23      C      0.488310000000     0.501170000000     0.603860000000     0.401158   
C24      C      0.543980000000     0.549060000000     0.361280000000     0.400448   
C25      C      0.142700000000     0.386450000000     0.874200000000     0.398417   
C26      C      0.235120000000     0.309450000000     0.801120000000     0.403211   
C27      C      0.214770000000     0.349820000000     0.961830000000     0.40152    
C28      C      0.164800000000     0.346580000000     0.716390000000     0.39764    
C29      C      0.310650000000     0.210340000000     0.725610000000     0.39878    
C30      C      0.376710000000     0.113760000000     0.629940000000     0.400332   
C31      C      0.348130000000     0.135530000000     0.795090000000     0.39928    
C32      C      0.338240000000     0.187760000000     0.555980000000     0.398608   
C33      C      0.054170000000     0.468480000000     0.964000000000     0.402988   
C34      C      0.969510000000     0.558710000000     0.002550000000     0.394566   
C35      C      0.011850000000     0.526960000000     0.853950000000     0.40387    
C36      C      0.011610000000     0.501820000000     0.107740000000     0.406087   
C37      C      0.713380000000     0.808700000000     0.254490000000     0.400307   
C38      C      0.630200000000     0.893620000000     0.333800000000     0.40542    
C39      C      0.666690000000     0.871650000000     0.170380000000     0.398839   
C40      C      0.677720000000     0.831920000000     0.416150000000     0.398521   
C41      C      0.883710000000     0.642630000000     0.111350000000     0.398635   
C42      C      0.798820000000     0.718190000000     0.219460000000     0.404745   
C43      C      0.812030000000     0.686480000000     0.048390000000     0.403574   
C44      C      0.868300000000     0.674610000000     0.284050000000     0.397985   
C45      C      0.556560000000     0.953250000000     0.495270000000     0.399947   
C46      C      0.455230000000     0.026090000000     0.531550000000     0.405587   
C47      C      0.493730000000     0.987200000000     0.389570000000     0.404412   
C48      C      0.519410000000     0.991320000000     0.644330000000     0.39865    
C49      C      0.309500000000     0.089340000000     0.209620000000     0.403846   
C50      C      0.373160000000     0.255150000000     0.131570000000     0.398177   
C51      C      0.339170000000     0.197200000000     0.295630000000     0.39797    
C52      C      0.345280000000     0.151550000000     0.051050000000     0.402103   
C53      C      0.450110000000     0.423590000000     0.028010000000     0.403313   
C54      C      0.550000000000     0.587780000000     0.942010000000     0.401399   
C55      C      0.525110000000     0.529360000000     0.105210000000     0.403238   
C56      C      0.472790000000     0.479530000000     0.861980000000     0.398065   
C57      C      0.230990000000     0.917000000000     0.283310000000     0.400091   
C58      C      0.136640000000     0.741650000000     0.293980000000     0.398511   
C59      C      0.178990000000     0.825710000000     0.157920000000     0.400301   
C60      C      0.188990000000     0.832010000000     0.414810000000     0.406765   
C61      C      0.975370000000     0.426450000000     0.518380000000     0.398304   
C62      C      0.059570000000     0.591070000000     0.427980000000     0.403726   
C63      C      0.020250000000     0.539240000000     0.594520000000     0.401074   
C64      C      0.013770000000     0.478220000000     0.356820000000     0.403098   
C65      C      0.884450000000     0.247110000000     0.586170000000     0.401554   
C66      C      0.800920000000     0.080110000000     0.665380000000     0.399549   
C67      C      0.814030000000     0.136340000000     0.505240000000     0.406627   
C68      C      0.871330000000     0.192910000000     0.743960000000     0.401449   
C69      C      0.638190000000     0.742470000000     0.817600000000     0.403656   
C70      C      0.722390000000     0.915220000000     0.769710000000     0.40347    
C71      C      0.676330000000     0.847010000000     0.917370000000     0.40308    
C72      C      0.683930000000     0.809740000000     0.669580000000     0.40373    
C73      C      0.730970000000     0.010930000000     0.692560000000    -0.0142439  
C74      C      0.805020000000     0.013590000000     0.693340000000    -0.0413325  
C75      C      0.718180000000     0.983310000000     0.754860000000    -0.0116897  
C76      C      0.793170000000     0.990120000000     0.759020000000     0.0763461  
C77      C      0.822790000000     0.969720000000     0.772540000000    -0.182812   
C78      C      0.978730000000     0.361120000000     0.555310000000    -0.014943   
C79      C      0.904480000000     0.357130000000     0.531590000000    -0.041904   
C80      C      0.952240000000     0.311320000000     0.542930000000    -0.00970257 
C81      C      0.884430000000     0.317250000000     0.577290000000     0.0787221  
C82      C      0.886750000000     0.331580000000     0.648210000000    -0.182844   
C83      C      0.064790000000     0.672810000000     0.315710000000    -0.0136074  
C84      C      0.136000000000     0.671830000000     0.314780000000    -0.040955   
C85      C      0.056150000000     0.655620000000     0.385810000000    -0.0128309  
C86      C      0.130140000000     0.658630000000     0.386590000000     0.0764375  
C87      C      0.158580000000     0.637340000000     0.403010000000    -0.182872   
C88      C      0.555500000000     0.657680000000     0.906230000000    -0.013077   
C89      C      0.623990000000     0.649950000000     0.908920000000    -0.0417862  
C90      C      0.566750000000     0.674460000000     0.836790000000    -0.0113703  
C91      C      0.635840000000     0.669490000000     0.840140000000     0.0773218  
C92      C      0.686180000000     0.690660000000     0.827210000000    -0.185641   
C93      C      0.232580000000     0.988210000000     0.292270000000    -0.0128114  
C94      C      0.303570000000     0.987480000000     0.277800000000    -0.0407997  
C95      C      0.243210000000     0.018290000000     0.233910000000    -0.0111079  
C96      C      0.316600000000     0.020490000000     0.221080000000     0.0763345  
C97      C      0.367720000000     0.048250000000     0.216010000000    -0.1861     
C98      C      0.437780000000     0.321420000000     0.087610000000    -0.0125899  
C99      C      0.360270000000     0.308400000000     0.069780000000    -0.0402343  
C100     C      0.454170000000     0.369840000000     0.097950000000    -0.0101512  
C101     C      0.378570000000     0.358990000000     0.070510000000     0.0750229  
C102     C      0.351600000000     0.369720000000     0.021490000000    -0.18459    
C103     C      0.721310000000     0.849030000000     0.517270000000    -0.0142256  
C104     C      0.637810000000     0.793840000000     0.515660000000    -0.0428362  
C105     C      0.726810000000     0.821160000000     0.569890000000    -0.0103885  
C106     C      0.645700000000     0.767690000000     0.568250000000     0.0793605  
C107     C      0.603290000000     0.738420000000     0.607830000000    -0.187703   
C108     C      0.624470000000     0.857490000000     0.067590000000    -0.0111273  
C109     C      0.705260000000     0.911970000000     0.070690000000    -0.0396145  
C110     C      0.631690000000     0.831000000000     0.015150000000    -0.0121169  
C111     C      0.715490000000     0.886270000000     0.019210000000     0.0747797  
C112     C      0.755330000000     0.919690000000     0.977730000000    -0.184119   
C113     C      0.710170000000     0.739370000000     0.218300000000    -0.0142863  
C114     C      0.783930000000     0.809430000000     0.231190000000    -0.0421427  
C115     C      0.728880000000     0.714220000000     0.255840000000    -0.0117032  
C116     C      0.800260000000     0.784140000000     0.272710000000     0.0785142  
C117     C      0.851490000000     0.808420000000     0.277420000000    -0.184121   
C118     C      0.628190000000     0.960450000000     0.457450000000    -0.0140275  
C119     C      0.557020000000     0.888530000000     0.450020000000    -0.0423792  
C120     C      0.633970000000     0.959940000000     0.383410000000    -0.0121224  
C121     C      0.560250000000     0.891290000000     0.375940000000     0.0780038  
C122     C      0.529600000000     0.846280000000     0.344180000000    -0.183076   
C123     C      0.061940000000     0.573990000000     0.695370000000    -0.0106063  
C124     C      0.980680000000     0.546990000000     0.689080000000    -0.0390176  
C125     C      0.055220000000     0.545620000000     0.754820000000    -0.012433   
C126     C      0.971450000000     0.517130000000     0.748910000000     0.0743485  
C127     C      0.931850000000     0.514850000000     0.786820000000    -0.184602   
C128     C      0.052680000000     0.480120000000     0.256300000000    -0.0138902  
C129     C      0.969900000000     0.442030000000     0.259230000000    -0.0378061  
C130     C      0.053900000000     0.514360000000     0.208500000000    -0.0110627  
C131     C      0.969700000000     0.476160000000     0.213190000000     0.0756701  
C132     C      0.925130000000     0.456610000000     0.176370000000    -0.183624   
C133     C      0.900270000000     0.554480000000     0.039150000000    -0.0131817  
C134     C      0.969320000000     0.629040000000     0.017640000000    -0.0425815  
C135     C      0.877320000000     0.581950000000     0.044110000000    -0.011617   
C136     C      0.953760000000     0.646640000000     0.074530000000     0.0781532  
C137     C      0.973790000000     0.642390000000     0.138650000000    -0.183657   
C138     C      0.310730000000     0.092750000000     0.893860000000    -0.0131219  
C139     C      0.392590000000     0.141540000000     0.892550000000    -0.0383792  
C140     C      0.306240000000     0.119120000000     0.949600000000    -0.0116013  
C141     C      0.390480000000     0.169380000000     0.948440000000     0.0743724  
C142     C      0.434380000000     0.189380000000     0.987180000000    -0.182762   
C143     C      0.379700000000     0.240020000000     0.392690000000    -0.0110906  
C144     C      0.297620000000     0.202360000000     0.390160000000    -0.0373979  
C145     C      0.380090000000     0.219810000000     0.457740000000    -0.0122524  
C146     C      0.293630000000     0.181200000000     0.457590000000     0.0731571  
C147     C      0.258440000000     0.185990000000     0.497290000000    -0.184955   
C148     C      0.443210000000     0.110570000000     0.596090000000    -0.0129073  
C149     C      0.368370000000     0.040680000000     0.603920000000    -0.0423998  
C150     C      0.451260000000     0.094280000000     0.532220000000    -0.0105656  
C151     C      0.380130000000     0.023580000000     0.542290000000     0.0783276  
C152     C      0.354750000000     0.972880000000     0.541290000000    -0.187541   
C153     C      0.139370000000     0.454680000000     0.891810000000    -0.0138237  
C154     C      0.069720000000     0.380430000000     0.899750000000    -0.0418754  
C155     C      0.125500000000     0.469170000000     0.953030000000    -0.0115607  
C156     C      0.055980000000     0.396310000000     0.960440000000     0.0765961  
C157     C      0.005160000000     0.369270000000     0.970240000000    -0.183743   
C158     C      0.246350000000     0.213990000000     0.770150000000    -0.0129672  
C159     C      0.323360000000     0.278670000000     0.781010000000    -0.0401592  
C160     C      0.229610000000     0.244460000000     0.748100000000    -0.0108195  
C161     C      0.305890000000     0.310570000000     0.764630000000     0.0746555  
C162     C      0.334300000000     0.354140000000     0.801760000000    -0.183809   
C163     C      0.476210000000     0.443520000000     0.760450000000    -0.0111883  
C164     C      0.429310000000     0.478310000000     0.765570000000    -0.0385077  
C165     C      0.501530000000     0.471450000000     0.702160000000    -0.0123832  
C166     C      0.452900000000     0.507720000000     0.706090000000     0.0740134  
C167     C      0.417770000000     0.512440000000     0.665990000000    -0.184113   
C168     C      0.548090000000     0.589820000000     0.261020000000    -0.0132543  
C169     C      0.582410000000     0.542520000000     0.264510000000    -0.038189   
C170     C      0.517670000000     0.562520000000     0.205120000000    -0.0113418  
C171     C      0.552610000000     0.513640000000     0.209110000000     0.074817   
C172     C      0.577040000000     0.493820000000     0.171830000000    -0.182921   
C173     C      0.916820000000     0.200290000000     0.840530000000    -0.0133005  
C174     C      0.869230000000     0.234800000000     0.838560000000    -0.0371868  
C175     C      0.891550000000     0.172850000000     0.899930000000    -0.011568   
C176     C      0.842100000000     0.207190000000     0.896470000000     0.0746449  
C177     C      0.822010000000     0.231580000000     0.932940000000    -0.182668   
C178     C      0.851860000000     0.132140000000     0.356290000000    -0.0140072  
C179     C      0.809160000000     0.173750000000     0.356250000000    -0.0413679  
C180     C      0.818660000000     0.100170000000     0.405840000000    -0.00849378 
C181     C      0.775390000000     0.138910000000     0.403080000000     0.0772401  
C182     C      0.749170000000     0.156840000000     0.439910000000    -0.185635   
C183     C      0.174960000000     0.385920000000     0.613350000000    -0.013524   
C184     C      0.127950000000     0.302060000000     0.619460000000    -0.043048   
C185     C      0.143350000000     0.385200000000     0.560880000000    -0.0109756  
C186     C      0.099000000000     0.303860000000     0.564480000000     0.079487   
C187     C      0.074880000000     0.260170000000     0.526740000000    -0.186952   
C188     C      0.184770000000     0.307810000000     0.120210000000    -0.0147747  
C189     C      0.225920000000     0.391690000000     0.118980000000    -0.0407381  
C190     C      0.212150000000     0.309100000000     0.061120000000    -0.00980219 
C191     C      0.255350000000     0.390660000000     0.064100000000     0.0760436  
C192     C      0.277820000000     0.434830000000     0.027430000000    -0.1851     
C193     C      0.019940000000     0.241610000000     0.257420000000    -0.0131312  
C194     C      0.021950000000     0.314220000000     0.249120000000    -0.0423533  
C195     C      0.010960000000     0.234720000000     0.184890000000    -0.0102015  
C196     C      0.008710000000     0.304290000000     0.177000000000     0.078165   
C197     C      0.984920000000     0.328800000000     0.153070000000    -0.186129   
C198     C      0.362640000000     0.477530000000     0.403330000000    -0.013709   
C199     C      0.368280000000     0.408960000000     0.398190000000    -0.0414546  
C200     C      0.316350000000     0.450980000000     0.433220000000    -0.0113255  
C201     C      0.320900000000     0.382080000000     0.427050000000     0.0760122  
C202     C      0.300030000000     0.333560000000     0.405750000000    -0.184318   
C203     C      0.548200000000     0.033960000000     0.745760000000    -0.0145528  
C204     C      0.505620000000     0.950240000000     0.746760000000    -0.0410455  
C205     C      0.577500000000     0.033100000000     0.800860000000    -0.0095283  
C206     C      0.538940000000     0.951620000000     0.797240000000     0.0767256  
C207     C      0.519520000000     0.907370000000     0.833370000000    -0.184734   
C208     C      0.475940000000     0.026270000000     0.235250000000    -0.0136106  
C209     C      0.436650000000     0.944460000000     0.233760000000    -0.03848    
C210     C      0.508410000000     0.027420000000     0.286830000000    -0.0114036  
C211     C      0.468610000000     0.944080000000     0.284840000000     0.0754257  
C212     C      0.445720000000     0.900380000000     0.322820000000    -0.183127   
C213     C      0.694310000000     0.116330000000     0.080560000000    -0.0133616  
C214     C      0.702450000000     0.048590000000     0.082620000000    -0.0422547  
C215     C      0.651430000000     0.091290000000     0.119050000000    -0.00956709 
C216     C      0.656730000000     0.023250000000     0.117230000000     0.0778435  
C217     C      0.634780000000     0.973550000000     0.103600000000    -0.188629   
C218     C      0.211230000000     0.893400000000     0.559200000000    -0.0148056  
C219     C      0.252250000000     0.851820000000     0.558310000000    -0.0393883  
C220     C      0.173830000000     0.857240000000     0.517820000000    -0.0111417  
C221     C      0.214600000000     0.814600000000     0.519550000000     0.0779485  
C222     C      0.231170000000     0.787420000000     0.482360000000    -0.184059   
C223     C      0.153550000000     0.842000000000     0.054800000000    -0.0142445  
C224     C      0.200650000000     0.805190000000     0.055800000000    -0.0409785  
C225     C      0.126700000000     0.812000000000     0.998360000000    -0.00920517 
C226     C      0.169720000000     0.772750000000     0.004230000000     0.076676   
C227     C      0.193050000000     0.751050000000     0.969090000000    -0.1845     
C228     C      0.358360000000     0.888390000000     0.928820000000    -0.0135198  
C229     C      0.363340000000     0.962440000000     0.926030000000    -0.0420848  
C230     C      0.346040000000     0.882240000000     0.857200000000    -0.0112103  
C231     C      0.348430000000     0.954480000000     0.854640000000     0.0777304  
C232     C      0.326600000000     0.981810000000     0.835360000000    -0.186508   
C233     C      0.798290000000     0.644600000000     0.897060000000    -0.0142562  
C234     C      0.840910000000     0.728740000000     0.891660000000    -0.0440555  
C235     C      0.769730000000     0.647580000000     0.951210000000    -0.0103964  
C236     C      0.812290000000     0.728880000000     0.948420000000     0.0798903  
C237     C      0.835490000000     0.772460000000     0.986520000000    -0.18683    
C238     C      0.913580000000     0.718510000000     0.450390000000    -0.0124997  
C239     C      0.878150000000     0.637480000000     0.454190000000    -0.0385969  
C240     C      0.897330000000     0.717550000000     0.381490000000    -0.0113977  
C241     C      0.859460000000     0.632220000000     0.384720000000     0.0742996  
C242     C      0.866550000000     0.597440000000     0.349010000000    -0.185897   
C243     C      0.668840000000     0.570910000000     0.552490000000    -0.0133524  
C244     C      0.666660000000     0.641600000000     0.554290000000    -0.041693   
C245     C      0.689650000000     0.581350000000     0.619550000000    -0.0107455  
C246     C      0.692310000000     0.653710000000     0.619330000000     0.0766975  
C247     C      0.719270000000     0.704090000000     0.627700000000    -0.187075   
C248     C      0.005610000000     0.779020000000     0.729760000000    -0.0122165  
C249     C      0.996670000000     0.703270000000     0.735340000000    -0.0422336  
C250     C      0.047680000000     0.794490000000     0.689860000000    -0.0100852  
C251     C      0.041330000000     0.720630000000     0.698630000000     0.0774294  
C252     C      0.062860000000     0.692780000000     0.716210000000    -0.186898   
Cu1      Cu     0.854640000000     0.718250000000     0.662100000000     0.834262   
Cu2      Cu     0.841450000000     0.642840000000     0.677890000000     0.841008   
Cu3      Cu     0.189740000000     0.868840000000     0.788200000000     0.83734    
Cu4      Cu     0.199260000000     0.804280000000     0.772350000000     0.845969   
Cu5      Cu     0.513200000000     0.026930000000     0.010200000000     0.838872   
Cu6      Cu     0.502490000000     0.952490000000     0.026470000000     0.839411   
Cu7      Cu     0.172860000000     0.384260000000     0.334830000000     0.83784    
Cu8      Cu     0.164770000000     0.310700000000     0.348860000000     0.835783   
Cu9      Cu     0.847600000000     0.207730000000     0.132490000000     0.840075   
Cu10     Cu     0.859920000000     0.144350000000     0.124530000000     0.842037   
Cu11     Cu     0.511430000000     0.557750000000     0.488330000000     0.82796    
Cu12     Cu     0.519580000000     0.492030000000     0.475900000000     0.848773   
Cu13     Cu     0.156390000000     0.311440000000     0.848030000000     0.838719   
Cu14     Cu     0.222270000000     0.384740000000     0.830210000000     0.83471    
Cu15     Cu     0.305060000000     0.130320000000     0.670690000000     0.832714   
Cu16     Cu     0.381350000000     0.193680000000     0.681360000000     0.846699   
Cu17     Cu     0.975780000000     0.479780000000     0.976350000000     0.836948   
Cu18     Cu     0.048270000000     0.548410000000     0.985400000000     0.837933   
Cu19     Cu     0.635810000000     0.817390000000     0.287910000000     0.841815   
Cu20     Cu     0.708370000000     0.885800000000     0.298530000000     0.839529   
Cu21     Cu     0.807540000000     0.643590000000     0.172250000000     0.837077   
Cu22     Cu     0.874420000000     0.716780000000     0.158620000000     0.833943   
Cu23     Cu     0.473160000000     0.952740000000     0.521880000000     0.840064   
Cu24     Cu     0.539520000000     0.026660000000     0.511980000000     0.839291   
Cu25     Cu     0.379780000000     0.180400000000     0.182310000000     0.837438   
Cu26     Cu     0.303070000000     0.165600000000     0.165110000000     0.838016   
Cu27     Cu     0.531000000000     0.498700000000     0.975480000000     0.843855   
Cu28     Cu     0.468020000000     0.511960000000     0.991030000000     0.83521    
Cu29     Cu     0.218580000000     0.827570000000     0.283940000000     0.844213   
Cu30     Cu     0.149150000000     0.831040000000     0.289040000000     0.83903    
Cu31     Cu     0.053660000000     0.511350000000     0.484080000000     0.840461   
Cu32     Cu     0.980990000000     0.506850000000     0.466470000000     0.842024   
Cu33     Cu     0.876310000000     0.161240000000     0.614790000000     0.84028    
Cu34     Cu     0.808540000000     0.165860000000     0.635600000000     0.844082   
Cu35     Cu     0.716500000000     0.831060000000     0.802790000000     0.834325   
Cu36     Cu     0.643980000000     0.826400000000     0.783820000000     0.839697   
H1       H      0.818120000000     0.944980000000     0.735100000000     0.0745083  
H2       H      0.795460000000     0.988550000000     0.654320000000     0.0455086  
H3       H      0.716780000000     0.987940000000     0.650870000000     0.0401445  
H4       H      0.681510000000     0.960670000000     0.755280000000     0.0425098  
H5       H      0.841690000000     0.036140000000     0.690600000000     0.0483035  
H6       H      0.858460000000     0.995920000000     0.771570000000     0.0578518  
H7       H      0.802220000000     0.016190000000     0.796400000000     0.0179821  
H8       H      0.715230000000     0.031890000000     0.693010000000     0.0432621  
H9       H      0.726190000000     0.006150000000     0.796560000000     0.0364069  
H10      H      0.816300000000     0.955090000000     0.821810000000     0.072822   
H11      H      0.921740000000     0.352830000000     0.664250000000     0.0728897  
H12      H      0.888950000000     0.377730000000     0.541520000000     0.0469652  
H13      H      0.987220000000     0.367230000000     0.607550000000     0.0384247  
H14      H      0.971170000000     0.296230000000     0.563590000000     0.041052   
H15      H      0.895420000000     0.345050000000     0.481000000000     0.0443919  
H16      H      0.868690000000     0.350130000000     0.654270000000     0.0615202  
H17      H      0.848430000000     0.297000000000     0.564670000000     0.0183156  
H18      H      0.010860000000     0.375050000000     0.528590000000     0.0436522  
H19      H      0.949910000000     0.305400000000     0.489830000000     0.0387894  
H20      H      0.870750000000     0.302250000000     0.680330000000     0.0733007  
H21      H      0.147170000000     0.606200000000     0.375610000000     0.0742236  
H22      H      0.120250000000     0.641310000000     0.284840000000     0.0431706  
H23      H      0.048510000000     0.643900000000     0.282710000000     0.03666    
H24      H      0.019610000000     0.634620000000     0.393050000000     0.0414506  
H25      H      0.171950000000     0.690690000000     0.301720000000     0.0466931  
H26      H      0.193930000000     0.660130000000     0.389610000000     0.0567601  
H27      H      0.144520000000     0.689780000000     0.414960000000     0.0172213  
H28      H      0.049040000000     0.693340000000     0.307390000000     0.0412021  
H29      H      0.067700000000     0.684510000000     0.418570000000     0.0388675  
H30      H      0.158460000000     0.631830000000     0.455970000000     0.0749936  
H31      H      0.706070000000     0.715940000000     0.864240000000     0.0774314  
H32      H      0.642010000000     0.677120000000     0.944380000000     0.0460936  
H33      H      0.569890000000     0.686520000000     0.939480000000     0.0395109  
H34      H      0.551400000000     0.695050000000     0.826160000000     0.04035    
H35      H      0.635770000000     0.625940000000     0.915890000000     0.049355   
H36      H      0.696050000000     0.664970000000     0.829360000000     0.0634072  
H37      H      0.619340000000     0.640950000000     0.806370000000     0.0188729  
H38      H      0.518680000000     0.639850000000     0.912190000000     0.041043   
H39      H      0.551260000000     0.645610000000     0.803540000000     0.0363573  
H40      H      0.694340000000     0.705170000000     0.777900000000     0.07545    
H41      H      0.382080000000     0.070440000000     0.258470000000     0.0772662  
H42      H      0.318030000000     0.006340000000     0.323270000000     0.0440869  
H43      H      0.245760000000     0.009120000000     0.336320000000     0.0378732  
H44      H      0.226680000000     0.038190000000     0.241500000000     0.0417477  
H45      H      0.318080000000     0.965800000000     0.269990000000     0.0485707  
H46      H      0.382200000000     0.026220000000     0.214480000000     0.0636593  
H47      H      0.305100000000     0.000170000000     0.176240000000     0.0199248  
H48      H      0.195810000000     0.967770000000     0.297650000000     0.0417075  
H49      H      0.228290000000     0.997600000000     0.190080000000     0.0400242  
H50      H      0.377780000000     0.067300000000     0.170110000000     0.0786824  
H51      H      0.363480000000     0.370440000000     0.971290000000     0.0719572  
H52      H      0.356350000000     0.296960000000     0.018670000000     0.0438781  
H53      H      0.443180000000     0.316100000000     0.036080000000     0.0381283  
H54      H      0.490470000000     0.388680000000     0.087150000000     0.0372605  
H55      H      0.326440000000     0.291680000000     0.091900000000     0.0480921  
H56      H      0.315620000000     0.344500000000     0.023530000000     0.0637008  
H57      H      0.372140000000     0.367540000000     0.119710000000     0.0196522  
H58      H      0.458290000000     0.312140000000     0.118090000000     0.0397922  
H59      H      0.450290000000     0.375100000000     0.150110000000     0.0361575  
H60      H      0.353660000000     0.401580000000     0.033200000000     0.0781662  
H61      H      0.587470000000     0.757250000000     0.625670000000     0.076378   
H62      H      0.625950000000     0.814790000000     0.538860000000     0.0476052  
H63      H      0.720370000000     0.877100000000     0.540870000000     0.0412783  
H64      H      0.755910000000     0.842960000000     0.600860000000     0.0365054  
H65      H      0.610860000000     0.770420000000     0.482870000000     0.0479772  
H66      H      0.578520000000     0.711350000000     0.576730000000     0.06003    
H67      H      0.653900000000     0.744710000000     0.542390000000     0.0152723  
H68      H      0.751100000000     0.862920000000     0.485220000000     0.0400338  
H69      H      0.733630000000     0.796650000000     0.546090000000     0.0331754  
H70      H      0.611120000000     0.723190000000     0.649270000000     0.0722996  
H71      H      0.744390000000     0.935930000000     0.941700000000     0.0709334  
H72      H      0.699060000000     0.936580000000     0.045700000000     0.0399471  
H73      H      0.617500000000     0.881780000000     0.043340000000     0.0328217  
H74      H      0.602650000000     0.817060000000     0.981650000000     0.0392443  
H75      H      0.734640000000     0.930260000000     0.102910000000     0.0468694  
H76      H      0.781520000000     0.945690000000     0.008700000000     0.0589326  
H77      H      0.725810000000     0.864990000000     0.045260000000     0.0224425  
H78      H      0.594780000000     0.835260000000     0.097140000000     0.0380028  
H79      H      0.631950000000     0.802590000000     0.038790000000     0.0397847  
H80      H      0.771680000000     0.903530000000     0.952700000000     0.0749846  
H81      H      0.867370000000     0.818190000000     0.228960000000     0.0742023  
H82      H      0.793890000000     0.809170000000     0.180050000000     0.0451143  
H83      H      0.714490000000     0.735810000000     0.165710000000     0.0390318  
H84      H      0.712730000000     0.679770000000     0.237640000000     0.0424538  
H85      H      0.800210000000     0.844340000000     0.247380000000     0.0486246  
H86      H      0.863270000000     0.839190000000     0.305890000000     0.0591531  
H87      H      0.788310000000     0.784010000000     0.322860000000     0.0191616  
H88      H      0.673820000000     0.723720000000     0.227920000000     0.0432618  
H89      H      0.719710000000     0.713020000000     0.307700000000     0.0390266  
H90      H      0.862680000000     0.787800000000     0.303200000000     0.0739538  
H91      H      0.534460000000     0.819860000000     0.365510000000     0.0739363  
H92      H      0.573940000000     0.870640000000     0.467940000000     0.045541   
H93      H      0.646380000000     0.945250000000     0.480300000000     0.040038   
H94      H      0.670070000000     0.976410000000     0.371590000000     0.0430304  
H95      H      0.521570000000     0.869620000000     0.465600000000     0.0468905  
H96      H      0.494230000000     0.836820000000     0.352710000000     0.0557557  
H97      H      0.546790000000     0.912850000000     0.360360000000     0.0178041  
H98      H      0.643720000000     0.995050000000     0.474840000000     0.0432476  
H99      H      0.620570000000     0.979840000000     0.361020000000     0.0389674  
H100     H      0.534780000000     0.848280000000     0.290940000000     0.0743354  
H101     H      0.942880000000     0.545250000000     0.815970000000     0.0709862  
H102     H      0.985910000000     0.579500000000     0.705420000000     0.0399063  
H103     H      0.068740000000     0.606910000000     0.712190000000     0.0327004  
H104     H      0.084710000000     0.563390000000     0.787040000000     0.0397491  
H105     H      0.951080000000     0.532040000000     0.656650000000     0.0469239  
H106     H      0.905190000000     0.511330000000     0.753190000000     0.0587751  
H107     H      0.961270000000     0.483420000000     0.731030000000     0.0210227  
H108     H      0.091660000000     0.578770000000     0.667940000000     0.0386729  
H109     H      0.054520000000     0.514980000000     0.738700000000     0.0395257  
H110     H      0.916060000000     0.485480000000     0.818720000000     0.0763679  
H111     H      0.918670000000     0.426970000000     0.148210000000     0.0732895  
H112     H      0.967930000000     0.414350000000     0.230130000000     0.0403686  
H113     H      0.051770000000     0.452600000000     0.228170000000     0.0356776  
H114     H      0.082720000000     0.524590000000     0.175260000000     0.0381381  
H115     H      0.940480000000     0.428290000000     0.292070000000     0.0447366  
H116     H      0.897320000000     0.446320000000     0.211430000000     0.0583758  
H117     H      0.971250000000     0.502940000000     0.244130000000     0.0230844  
H118     H      0.083480000000     0.495520000000     0.286290000000     0.0389206  
H119     H      0.059370000000     0.543880000000     0.236250000000     0.0382217  
H120     H      0.924590000000     0.481770000000     0.144210000000     0.07353    
H121     H      0.961890000000     0.607240000000     0.150120000000     0.0733247  
H122     H      0.006300000000     0.644860000000     0.017900000000     0.0492928  
H123     H      0.899000000000     0.539510000000     0.087170000000     0.0348988  
H124     H      0.844020000000     0.561300000000     0.066670000000     0.0395115  
H125     H      0.960290000000     0.639250000000     0.971730000000     0.0433712  
H126     H      0.010780000000     0.660380000000     0.135870000000     0.0673684  
H127     H      0.967080000000     0.682460000000     0.066000000000     0.0212643  
H128     H      0.880980000000     0.526760000000     0.005010000000     0.0374294  
H129     H      0.871410000000     0.590090000000     0.994370000000     0.0354079  
H130     H      0.964000000000     0.656870000000     0.178850000000     0.0724726  
H131     H      0.436850000000     0.163500000000     0.014950000000     0.0747536  
H132     H      0.396870000000     0.114530000000     0.913290000000     0.0406223  
H133     H      0.314530000000     0.065520000000     0.914750000000     0.0338914  
H134     H      0.278260000000     0.095830000000     0.981160000000     0.0393225  
H135     H      0.421920000000     0.161870000000     0.861090000000     0.0463748  
H136     H      0.463430000000     0.205200000000     0.953870000000     0.0585148  
H137     H      0.389260000000     0.197610000000     0.925750000000     0.0218785  
H138     H      0.279800000000     0.077900000000     0.864230000000     0.0401626  
H139     H      0.297190000000     0.143000000000     0.929130000000     0.0415998  
H140     H      0.437420000000     0.215970000000     0.019770000000     0.0755787  
H141     H      0.272720000000     0.220330000000     0.515310000000     0.0681198  
H142     H      0.298480000000     0.234400000000     0.396120000000     0.0389287  
H143     H      0.381040000000     0.271970000000     0.401980000000     0.0332532  
H144     H      0.407390000000     0.245800000000     0.487430000000     0.0410727  
H145     H      0.267460000000     0.180400000000     0.361170000000     0.0459426  
H146     H      0.228790000000     0.177980000000     0.466990000000     0.0583953  
H147     H      0.280690000000     0.145360000000     0.449880000000     0.0243816  
H148     H      0.410200000000     0.247380000000     0.365050000000     0.0400228  
H149     H      0.389100000000     0.193840000000     0.449290000000     0.0405825  
H150     H      0.245910000000     0.163000000000     0.538900000000     0.0779265  
H151     H      0.363640000000     0.959240000000     0.583620000000     0.0792413  
H152     H      0.376150000000     0.026680000000     0.647040000000     0.0450403  
H153     H      0.459090000000     0.101640000000     0.635600000000     0.040641   
H154     H      0.487710000000     0.111160000000     0.522920000000     0.0414315  
H155     H      0.331920000000     0.028530000000     0.604640000000     0.0499436  
H156     H      0.318350000000     0.960480000000     0.543710000000     0.0649288  
H157     H      0.366920000000     0.034000000000     0.500870000000     0.0177221  
H158     H      0.459810000000     0.147120000000     0.593930000000     0.0417539  
H159     H      0.436130000000     0.104170000000     0.492770000000     0.036389   
H160     H      0.361020000000     0.960500000000     0.495260000000     0.0775739  
H161     H      0.987080000000     0.372510000000     0.928060000000     0.0754769  
H162     H      0.053270000000     0.385320000000     0.856800000000     0.0457915  
H163     H      0.127870000000     0.465630000000     0.849080000000     0.0388606  
H164     H      0.140550000000     0.505580000000     0.951580000000     0.0407257  
H165     H      0.057450000000     0.344510000000     0.904020000000     0.0496912  
H166     H      0.994590000000     0.333770000000     0.975320000000     0.0606278  
H167     H      0.070880000000     0.388250000000     0.002380000000     0.018021   
H168     H      0.176380000000     0.471690000000     0.890160000000     0.0401606  
H169     H      0.139840000000     0.461080000000     0.995540000000     0.0357249  
H170     H      0.995420000000     0.379220000000     0.015650000000     0.0734359  
H171     H      0.324440000000     0.350450000000     0.853570000000     0.0732271  
H172     H      0.324480000000     0.275940000000     0.834600000000     0.043511   
H173     H      0.241730000000     0.209480000000     0.823450000000     0.0392443  
H174     H      0.193540000000     0.228730000000     0.759860000000     0.0409857  
H175     H      0.358110000000     0.293020000000     0.762830000000     0.0485306  
H176     H      0.370260000000     0.364350000000     0.799380000000     0.0622868  
H177     H      0.311780000000     0.318000000000     0.711980000000     0.0194313  
H178     H      0.225720000000     0.181260000000     0.746960000000     0.0407105  
H179     H      0.232450000000     0.247220000000     0.694440000000     0.0359071  
H180     H      0.331420000000     0.381340000000     0.779220000000     0.0773762  
H181     H      0.398290000000     0.482910000000     0.635080000000     0.0710139  
H182     H      0.399930000000     0.447260000000     0.748460000000     0.0386919  
H183     H      0.447410000000     0.412370000000     0.742310000000     0.0333319  
H184     H      0.509650000000     0.450970000000     0.669970000000     0.0416842  
H185     H      0.416960000000     0.495400000000     0.797700000000     0.0448017  
H186     H      0.394160000000     0.516220000000     0.698130000000     0.0579532  
H187     H      0.477760000000     0.540960000000     0.724480000000     0.0219169  
H188     H      0.498030000000     0.434680000000     0.788500000000     0.0395802  
H189     H      0.533830000000     0.499210000000     0.719490000000     0.0399974  
H190     H      0.433520000000     0.542490000000     0.635480000000     0.0765435  
H191     H      0.605570000000     0.519660000000     0.143860000000     0.0760409  
H192     H      0.613700000000     0.569720000000     0.243400000000     0.043115   
H193     H      0.579110000000     0.617540000000     0.240260000000     0.0372667  
H194     H      0.512830000000     0.585120000000     0.172550000000     0.0392167  
H195     H      0.591830000000     0.523090000000     0.296920000000     0.046813   
H196     H      0.590360000000     0.478760000000     0.206130000000     0.0584405  
H197     H      0.523060000000     0.485400000000     0.232160000000     0.0219449  
H198     H      0.531110000000     0.603900000000     0.289940000000     0.0406292  
H199     H      0.484520000000     0.538310000000     0.225310000000     0.0412742  
H200     H      0.553630000000     0.466680000000     0.139620000000     0.0745625  
H201     H      0.848560000000     0.262380000000     0.955520000000     0.0729148  
H202     H      0.897550000000     0.266280000000     0.856880000000     0.0399562  
H203     H      0.946080000000     0.231500000000     0.857530000000     0.0363139  
H204     H      0.915580000000     0.168990000000     0.931160000000     0.0388094  
H205     H      0.848550000000     0.243210000000     0.806820000000     0.0432706  
H206     H      0.803230000000     0.240810000000     0.898760000000     0.0578117  
H207     H      0.813370000000     0.176770000000     0.876230000000     0.0230863  
H208     H      0.929080000000     0.181790000000     0.811450000000     0.0398291  
H209     H      0.865800000000     0.139470000000     0.883350000000     0.0401064  
H210     H      0.797550000000     0.209750000000     0.969790000000     0.0754079  
H211     H      0.771840000000     0.187850000000     0.466030000000     0.0755244  
H212     H      0.834050000000     0.202700000000     0.384520000000     0.046539   
H213     H      0.881820000000     0.157200000000     0.382820000000     0.0418021  
H214     H      0.835210000000     0.086710000000     0.437130000000     0.0389329  
H215     H      0.791360000000     0.185010000000     0.323370000000     0.0469508  
H216     H      0.729430000000     0.164360000000     0.405040000000     0.0593679  
H217     H      0.750620000000     0.111060000000     0.372800000000     0.0183562  
H218     H      0.862820000000     0.113860000000     0.324230000000     0.0411262  
H219     H      0.791470000000     0.071970000000     0.379100000000     0.0356208  
H220     H      0.725170000000     0.131580000000     0.473980000000     0.0771762  
H221     H      0.098250000000     0.248900000000     0.511260000000     0.0758855  
H222     H      0.152130000000     0.293270000000     0.598680000000     0.0463484  
H223     H      0.205140000000     0.388780000000     0.589670000000     0.0413015  
H224     H      0.161660000000     0.414900000000     0.529810000000     0.040081   
H225     H      0.106340000000     0.275350000000     0.653760000000     0.0485977  
H226     H      0.049380000000     0.234080000000     0.558340000000     0.0599246  
H227     H      0.072280000000     0.307680000000     0.588390000000     0.017509   
H228     H      0.185720000000     0.415740000000     0.643870000000     0.0396089  
H229     H      0.115450000000     0.386940000000     0.584700000000     0.0366827  
H230     H      0.057410000000     0.263640000000     0.483970000000     0.0750704  
H231     H      0.252700000000     0.441450000000     0.004540000000     0.0752203  
H232     H      0.198930000000     0.396300000000     0.097940000000     0.0478399  
H233     H      0.151340000000     0.300620000000     0.103080000000     0.0405913  
H234     H      0.192160000000     0.279340000000     0.030800000000     0.0393749  
H235     H      0.246450000000     0.420310000000     0.151200000000     0.0461292  
H236     H      0.297760000000     0.462200000000     0.061690000000     0.0580578  
H237     H      0.282540000000     0.387530000000     0.087740000000     0.0153756  
H238     H      0.179500000000     0.279890000000     0.151800000000     0.0412734  
H239     H      0.241480000000     0.307270000000     0.079040000000     0.0316931  
H240     H      0.301470000000     0.435270000000     0.990720000000     0.0738727  
H241     H      0.956430000000     0.322410000000     0.184840000000     0.0759838  
H242     H      0.991110000000     0.303260000000     0.278140000000     0.0463239  
H243     H      0.987420000000     0.225650000000     0.283350000000     0.0393906  
H244     H      0.994260000000     0.198900000000     0.173950000000     0.0411494  
H245     H      0.043520000000     0.350360000000     0.256260000000     0.0503601  
H246     H      0.008600000000     0.364920000000     0.153750000000     0.0618692  
H247     H      0.040640000000     0.318650000000     0.149530000000     0.0186468  
H248     H      0.038470000000     0.224850000000     0.272860000000     0.0415523  
H249     H      0.043470000000     0.250830000000     0.158920000000     0.0372994  
H250     H      0.973480000000     0.319380000000     0.102360000000     0.0735571  
H251     H      0.292700000000     0.329950000000     0.353010000000     0.0773103  
H252     H      0.365790000000     0.406580000000     0.344480000000     0.0456834  
H253     H      0.358760000000     0.478900000000     0.350080000000     0.0391109  
H254     H      0.296860000000     0.467390000000     0.421260000000     0.0408144  
H255     H      0.388690000000     0.394240000000     0.414100000000     0.0491719  
H256     H      0.323460000000     0.321240000000     0.415670000000     0.0604665  
H257     H      0.325140000000     0.382620000000     0.480550000000     0.0187883  
H258     H      0.378680000000     0.511830000000     0.422080000000     0.0404973  
H259     H      0.320220000000     0.452290000000     0.486780000000     0.0353452  
H260     H      0.269520000000     0.312260000000     0.434290000000     0.0760799  
H261     H      0.487240000000     0.898500000000     0.856890000000     0.0748117  
H262     H      0.475400000000     0.946180000000     0.772010000000     0.046569   
H263     H      0.522030000000     0.039510000000     0.767450000000     0.0409319  
H264     H      0.588800000000     0.062730000000     0.831940000000     0.039342   
H265     H      0.495270000000     0.921240000000     0.714520000000     0.0466579  
H266     H      0.513180000000     0.880720000000     0.798470000000     0.0584652  
H267     H      0.568410000000     0.955440000000     0.769880000000     0.0185984  
H268     H      0.568810000000     0.062560000000     0.713720000000     0.0412115  
H269     H      0.607810000000     0.035180000000     0.778820000000     0.0352897  
H270     H      0.543820000000     0.908440000000     0.869470000000     0.0769885  
H271     H      0.415810000000     0.896210000000     0.348940000000     0.0734445  
H272     H      0.407490000000     0.942960000000     0.258920000000     0.0419295  
H273     H      0.447320000000     0.025830000000     0.260360000000     0.0335422  
H274     H      0.518030000000     0.056500000000     0.318540000000     0.0391421  
H275     H      0.423960000000     0.915070000000     0.201730000000     0.0455984  
H276     H      0.434620000000     0.872210000000     0.288830000000     0.0566818  
H277     H      0.496550000000     0.944300000000     0.257790000000     0.0221324  
H278     H      0.492860000000     0.056590000000     0.205110000000     0.039013   
H279     H      0.539020000000     0.032010000000     0.262240000000     0.0396643  
H280     H      0.469420000000     0.898440000000     0.357000000000     0.072917   
H281     H      0.627620000000     0.966380000000     0.051180000000     0.0770257  
H282     H      0.697300000000     0.041560000000     0.029830000000     0.0448065  
H283     H      0.685770000000     0.113550000000     0.028210000000     0.0397228  
H284     H      0.630280000000     0.106460000000     0.110960000000     0.0400558  
H285     H      0.724550000000     0.036250000000     0.100420000000     0.0490835  
H286     H      0.657630000000     0.961540000000     0.118730000000     0.0681026  
H287     H      0.663970000000     0.027490000000     0.170110000000     0.0192472  
H288     H      0.710540000000     0.151760000000     0.093860000000     0.0402186  
H289     H      0.660090000000     0.095130000000     0.171440000000     0.035848   
H290     H      0.603920000000     0.954940000000     0.132720000000     0.0802615  
H291     H      0.261240000000     0.808840000000     0.453020000000     0.0734474  
H292     H      0.277190000000     0.876020000000     0.523900000000     0.0413869  
H293     H      0.236010000000     0.918950000000     0.526130000000     0.0350452  
H294     H      0.159570000000     0.872770000000     0.486080000000     0.0399857  
H295     H      0.269450000000     0.838920000000     0.589380000000     0.0445862  
H296     H      0.240580000000     0.769350000000     0.517360000000     0.0583795  
H297     H      0.190040000000     0.791550000000     0.555540000000     0.0237637  
H298     H      0.197080000000     0.909180000000     0.590580000000     0.0403163  
H299     H      0.147010000000     0.833760000000     0.550730000000     0.0392089  
H300     H      0.204300000000     0.762480000000     0.451140000000     0.0736124  
H301     H      0.224290000000     0.776070000000     0.945140000000     0.074513   
H302     H      0.230080000000     0.832810000000     0.031600000000     0.0465892  
H303     H      0.179190000000     0.874150000000     0.034300000000     0.0407473  
H304     H      0.114750000000     0.829540000000     0.966430000000     0.0392694  
H305     H      0.212770000000     0.787980000000     0.088190000000     0.0473038  
H306     H      0.202120000000     0.732990000000     0.004610000000     0.0582644  
H307     H      0.140710000000     0.745850000000     0.030350000000     0.0184732  
H308     H      0.131140000000     0.848470000000     0.085640000000     0.0413918  
H309     H      0.096690000000     0.782980000000     0.018920000000     0.0352942  
H310     H      0.170100000000     0.726330000000     0.933510000000     0.0757859  
H311     H      0.297910000000     0.974550000000     0.867270000000     0.0777477  
H312     H      0.333340000000     0.951690000000     0.956950000000     0.0455448  
H313     H      0.327080000000     0.873210000000     0.957770000000     0.0372691  
H314     H      0.326670000000     0.846360000000     0.846620000000     0.0394881  
H315     H      0.385950000000     0.998270000000     0.934550000000     0.0490138  
H316     H      0.351260000000     0.017500000000     0.840420000000     0.0643446  
H317     H      0.379600000000     0.967830000000     0.825510000000     0.0191947  
H318     H      0.376570000000     0.870600000000     0.940240000000     0.0396101  
H319     H      0.377310000000     0.896340000000     0.828290000000     0.0357893  
H320     H      0.316100000000     0.975960000000     0.783800000000     0.0788777  
H321     H      0.870150000000     0.781740000000     0.999950000000     0.0757944  
H322     H      0.873810000000     0.735560000000     0.910690000000     0.0477188  
H323     H      0.824540000000     0.639270000000     0.919110000000     0.0416528  
H324     H      0.756460000000     0.617480000000     0.981760000000     0.0400843  
H325     H      0.847230000000     0.756020000000     0.857900000000     0.0470498  
H326     H      0.837370000000     0.799460000000     0.955980000000     0.0582815  
H327     H      0.782140000000     0.727220000000     0.926220000000     0.0135358  
H328     H      0.776750000000     0.615380000000     0.866520000000     0.0389218  
H329     H      0.740860000000     0.648370000000     0.928940000000     0.0331241  
H330     H      0.816050000000     0.770080000000     0.030630000000     0.0736893  
H331     H      0.902280000000     0.611420000000     0.336220000000     0.0673136  
H332     H      0.911410000000     0.639780000000     0.452380000000     0.0424981  
H333     H      0.947230000000     0.721840000000     0.447640000000     0.0348847  
H334     H      0.925370000000     0.744040000000     0.353450000000     0.0387366  
H335     H      0.855540000000     0.607470000000     0.482520000000     0.0468973  
H336     H      0.856180000000     0.567970000000     0.380120000000     0.0590708  
H337     H      0.822880000000     0.619000000000     0.388780000000     0.0248334  
H338     H      0.917480000000     0.748280000000     0.475630000000     0.0401697  
H339     H      0.870780000000     0.726610000000     0.383350000000     0.037541   
H340     H      0.846290000000     0.585520000000     0.304300000000     0.0775135  
H341     H      0.744320000000     0.719800000000     0.588490000000     0.0782777  
H342     H      0.691100000000     0.657600000000     0.514340000000     0.0460093  
H343     H      0.695990000000     0.583270000000     0.515850000000     0.040734   
H344     H      0.708070000000     0.563220000000     0.626270000000     0.0417786  
H345     H      0.643600000000     0.655090000000     0.553380000000     0.0484509  
H346     H      0.696480000000     0.717820000000     0.625570000000     0.065872   
H347     H      0.666360000000     0.641320000000     0.657910000000     0.0170596  
H348     H      0.648550000000     0.534520000000     0.547210000000     0.0421408  
H349     H      0.662420000000     0.568570000000     0.656140000000     0.0370449  
H350     H      0.735640000000     0.712910000000     0.675880000000     0.0772816  
H351     H      0.072490000000     0.696600000000     0.768130000000     0.0776106  
H352     H      0.003310000000     0.704710000000     0.788240000000     0.0451416  
H353     H      0.015240000000     0.786210000000     0.781600000000     0.0402344  
H354     H      0.069340000000     0.830730000000     0.695270000000     0.040709   
H355     H      0.973910000000     0.668160000000     0.722280000000     0.0483059  
H356     H      0.038700000000     0.657440000000     0.707400000000     0.0630981  
H357     H      0.032770000000     0.714990000000     0.646220000000     0.0192312  
H358     H      0.989390000000     0.798250000000     0.715470000000     0.0414415  
H359     H      0.037990000000     0.788080000000     0.637920000000     0.0369188  
H360     H      0.092060000000     0.701440000000     0.684650000000     0.0784288  
N1       N      0.743960000000     0.960230000000     0.761300000000    -0.177822   
N2       N      0.779830000000     0.036950000000     0.684700000000    -0.163208   
N3       N      0.906670000000     0.290820000000     0.569710000000    -0.179059   
N4       N      0.953520000000     0.383040000000     0.536270000000    -0.162808   
N5       N      0.081360000000     0.632740000000     0.401380000000    -0.177116   
N6       N      0.113080000000     0.696930000000     0.303010000000    -0.163961   
N7       N      0.615670000000     0.697830000000     0.828990000000    -0.178522   
N8       N      0.575580000000     0.630110000000     0.920400000000    -0.16368    
N9       N      0.292060000000     0.045520000000     0.225060000000    -0.176656   
N10      N      0.254760000000     0.962090000000     0.284490000000    -0.163832   
N11      N      0.427580000000     0.383770000000     0.059230000000    -0.177398   
N12      N      0.389960000000     0.295520000000     0.102470000000    -0.163536   
N13      N      0.685150000000     0.798170000000     0.606810000000    -0.180347   
N14      N      0.679520000000     0.822970000000     0.480190000000    -0.162464   
N15      N      0.674610000000     0.857310000000     0.980760000000    -0.176772   
N16      N      0.665070000000     0.881160000000     0.106580000000    -0.165444   
N17      N      0.777890000000     0.737740000000     0.249770000000    -0.178198   
N18      N      0.734830000000     0.786790000000     0.234990000000    -0.163361   
N19      N      0.608460000000     0.914160000000     0.358720000000    -0.178246   
N20      N      0.580500000000     0.934110000000     0.474680000000    -0.163816   
N21      N      0.012740000000     0.533050000000     0.788440000000    -0.176961   
N22      N      0.021180000000     0.553700000000     0.656240000000    -0.164789   
N23      N      0.011060000000     0.496020000000     0.173190000000    -0.17892    
N24      N      0.012010000000     0.463280000000     0.295400000000    -0.165065   
N25      N      0.904530000000     0.623510000000     0.079720000000    -0.177778   
N26      N      0.947190000000     0.580500000000     0.018370000000    -0.163229   
N27      N      0.348360000000     0.143760000000     0.986620000000    -0.176586   
N28      N      0.350630000000     0.122150000000     0.856340000000    -0.164803   
N29      N      0.337010000000     0.199680000000     0.492920000000    -0.174577   
N30      N      0.338650000000     0.210850000000     0.357580000000    -0.163127   
N31      N      0.429490000000     0.045830000000     0.534880000000    -0.177877   
N32      N      0.394860000000     0.089270000000     0.608280000000    -0.163644   
N33      N      0.076400000000     0.445210000000     0.958340000000    -0.177181   
N34      N      0.118460000000     0.406260000000     0.890220000000    -0.163072   
N35      N      0.256890000000     0.288870000000     0.776470000000    -0.176869   
N36      N      0.293980000000     0.234140000000     0.754860000000    -0.16373    
N37      N      0.477160000000     0.490150000000     0.667630000000    -0.175616   
N38      N      0.459670000000     0.467260000000     0.799310000000    -0.16485    
N39      N      0.535920000000     0.538250000000     0.169520000000    -0.176464   
N40      N      0.559260000000     0.561550000000     0.299550000000    -0.163826   
N41      N      0.869260000000     0.193250000000     0.935590000000    -0.177762   
N42      N      0.886950000000     0.210460000000     0.803630000000    -0.165097   
N43      N      0.799790000000     0.122740000000     0.443210000000    -0.178544   
N44      N      0.832680000000     0.155140000000     0.319960000000    -0.163789   
N45      N      0.125840000000     0.343710000000     0.524680000000    -0.177819   
N46      N      0.153550000000     0.345140000000     0.652570000000    -0.162314   
N47      N      0.227990000000     0.350490000000     0.024810000000    -0.178234   
N48      N      0.205430000000     0.350050000000     0.155960000000    -0.162494   
N49      N      0.984810000000     0.255710000000     0.166160000000    -0.178341   
N50      N      0.043720000000     0.289370000000     0.271000000000    -0.16352    
N51      N      0.294820000000     0.404450000000     0.412050000000    -0.176527   
N52      N      0.388850000000     0.455800000000     0.416560000000    -0.163134   
N53      N      0.553400000000     0.991600000000     0.837570000000    -0.177714   
N54      N      0.525940000000     0.991850000000     0.709710000000    -0.162866   
N55      N      0.488080000000     0.985570000000     0.323770000000    -0.177755   
N56      N      0.459950000000     0.985800000000     0.197090000000    -0.165112   
N57      N      0.629680000000     0.044300000000     0.101300000000    -0.177774   
N58      N      0.722780000000     0.096720000000     0.092040000000    -0.16357    
N59      N      0.191690000000     0.833300000000     0.480830000000    -0.178937   
N60      N      0.232810000000     0.873420000000     0.596580000000    -0.166051   
N61      N      0.153390000000     0.796570000000     0.963240000000    -0.17838    
N62      N      0.176540000000     0.823160000000     0.091950000000    -0.163372   
N63      N      0.322040000000     0.906130000000     0.842140000000    -0.178095   
N64      N      0.384220000000     0.935930000000     0.943160000000    -0.163911   
N65      N      0.797270000000     0.688470000000     0.987540000000    -0.178078   
N66      N      0.819980000000     0.685540000000     0.858220000000    -0.162976   
N67      N      0.879160000000     0.674490000000     0.347970000000    -0.175266   
N68      N      0.883560000000     0.677640000000     0.484570000000    -0.162198   
N69      N      0.717510000000     0.629610000000     0.626280000000    -0.177294   
N70      N      0.642950000000     0.593470000000     0.543550000000    -0.163215   
N71      N      0.069320000000     0.769080000000     0.709060000000    -0.17791    
N72      N      0.976710000000     0.731080000000     0.721410000000    -0.163885   
O1       O      0.918470000000     0.739470000000     0.687640000000    -0.401815   
O2       O      0.788630000000     0.689490000000     0.639180000000    -0.401691   
O3       O      0.839550000000     0.717160000000     0.757430000000    -0.399005   
O4       O      0.870320000000     0.712580000000     0.568680000000    -0.395744   
O5       O      0.857510000000     0.644130000000     0.582970000000    -0.397953   
O6       O      0.826050000000     0.648400000000     0.771030000000    -0.398636   
O7       O      0.777540000000     0.621880000000     0.652790000000    -0.40304    
O8       O      0.907150000000     0.671580000000     0.702060000000    -0.398641   
O9       O      0.127110000000     0.830910000000     0.754460000000    -0.403093   
O10      O      0.254220000000     0.900990000000     0.819100000000    -0.403072   
O11      O      0.210570000000     0.885340000000     0.695300000000    -0.4005     
O12      O      0.168420000000     0.845110000000     0.879260000000    -0.398979   
O13      O      0.177680000000     0.787340000000     0.864260000000    -0.40867    
O14      O      0.220930000000     0.827850000000     0.682450000000    -0.404862   
O15      O      0.261980000000     0.842280000000     0.805680000000    -0.406119   
O16      O      0.135170000000     0.772450000000     0.739830000000    -0.404113   
O17      O      0.450160000000     0.996470000000     0.973970000000    -0.39955    
O18      O      0.574340000000     0.049880000000     0.049190000000    -0.403464   
O19      O      0.537500000000     0.025140000000     0.920910000000    -0.398154   
O20      O      0.488690000000     0.021660000000     0.101110000000    -0.399709   
O21      O      0.477020000000     0.953480000000     0.114290000000    -0.401881   
O22      O      0.527610000000     0.958030000000     0.936330000000    -0.406194   
O23      O      0.565200000000     0.983110000000     0.064800000000    -0.402109   
O24      O      0.441340000000     0.929420000000     0.987160000000    -0.403295   
O25      O      0.235780000000     0.408960000000     0.369610000000    -0.399401   
O26      O      0.108610000000     0.351770000000     0.301610000000    -0.395116   
O27      O      0.150700000000     0.378350000000     0.427090000000    -0.400321   
O28      O      0.194890000000     0.383610000000     0.243960000000    -0.398223   
O29      O      0.185290000000     0.316080000000     0.255240000000    -0.397217   
O30      O      0.143030000000     0.311810000000     0.440210000000    -0.400881   
O31      O      0.102070000000     0.285740000000     0.315860000000    -0.404392   
O32      O      0.229030000000     0.342870000000     0.380530000000    -0.403187   
O33      O      0.782780000000     0.164510000000     0.114270000000    -0.404877   
O34      O      0.914160000000     0.245300000000     0.149720000000    -0.403926   
O35      O      0.858680000000     0.214870000000     0.035960000000    -0.407604   
O36      O      0.836370000000     0.193440000000     0.228120000000    -0.401201   
O37      O      0.849840000000     0.137610000000     0.221440000000    -0.401374   
O38      O      0.869480000000     0.157540000000     0.028420000000    -0.401813   
O39      O      0.925000000000     0.188140000000     0.141180000000    -0.402809   
O40      O      0.792980000000     0.106630000000     0.108760000000    -0.397233   
O41      O      0.576320000000     0.589790000000     0.518460000000    -0.395732   
O42      O      0.447920000000     0.519530000000     0.456240000000    -0.399434   
O43      O      0.490930000000     0.536360000000     0.580510000000    -0.400125   
O44      O      0.532210000000     0.572330000000     0.394930000000    -0.397067   
O45      O      0.541530000000     0.514030000000     0.384980000000    -0.400506   
O46      O      0.498440000000     0.477220000000     0.568760000000    -0.400976   
O47      O      0.455330000000     0.460310000000     0.444190000000    -0.399101   
O48      O      0.582440000000     0.529700000000     0.508520000000    -0.403354   
O49      O      0.123990000000     0.344220000000     0.873790000000    -0.397956   
O50      O      0.194450000000     0.285900000000     0.819270000000    -0.402763   
O51      O      0.179220000000     0.316030000000     0.940550000000    -0.39642    
O52      O      0.141110000000     0.313540000000     0.753440000000    -0.396762   
O53      O      0.199740000000     0.380610000000     0.738300000000    -0.398635   
O54      O      0.238150000000     0.382350000000     0.924080000000    -0.404852   
O55      O      0.254150000000     0.351640000000     0.802810000000    -0.401931   
O56      O      0.183910000000     0.410320000000     0.858690000000    -0.401018   
O57      O      0.283980000000     0.170580000000     0.707280000000    -0.400338   
O58      O      0.334290000000     0.096130000000     0.636640000000    -0.396307   
O59      O      0.312040000000     0.113910000000     0.762400000000    -0.398981   
O60      O      0.305010000000     0.153000000000     0.579820000000    -0.399415   
O61      O      0.373750000000     0.210270000000     0.589790000000    -0.398548   
O62      O      0.381730000000     0.169910000000     0.771050000000    -0.399067   
O63      O      0.402670000000     0.154360000000     0.644310000000    -0.404812   
O64      O      0.352900000000     0.227420000000     0.718410000000    -0.400718   
O65      O      0.011500000000     0.448790000000     0.961840000000    -0.403157   
O66      O      0.947230000000     0.516850000000     0.994080000000    -0.404627   
O67      O      0.978590000000     0.493550000000     0.880280000000    -0.404004   
O68      O      0.979540000000     0.473390000000     0.072890000000    -0.408362   
O69      O      0.044680000000     0.535620000000     0.081710000000    -0.4016     
O70      O      0.045390000000     0.553990000000     0.888140000000    -0.40171    
O71      O      0.012290000000     0.579660000000     0.998510000000    -0.395623   
O72      O      0.076620000000     0.510430000000     0.972070000000    -0.400515   
O73      O      0.670710000000     0.788030000000     0.258770000000    -0.399618   
O74      O      0.608080000000     0.852860000000     0.318400000000    -0.408881   
O75      O      0.634670000000     0.836400000000     0.195180000000    -0.399271   
O76      O      0.643590000000     0.805760000000     0.382060000000    -0.399373   
O77      O      0.709600000000     0.867130000000     0.391120000000    -0.39921    
O78      O      0.700820000000     0.897560000000     0.204540000000    -0.400634   
O79      O      0.672880000000     0.914900000000     0.327980000000    -0.39814    
O80      O      0.736180000000     0.849820000000     0.268750000000    -0.400437   
O81      O      0.842920000000     0.618740000000     0.129110000000    -0.401227   
O82      O      0.778460000000     0.676090000000     0.212730000000    -0.397997   
O83      O      0.788750000000     0.652090000000     0.083110000000    -0.400885   
O84      O      0.832790000000     0.641900000000     0.260690000000    -0.400185   
O85      O      0.891650000000     0.709220000000     0.249610000000    -0.400474   
O86      O      0.849360000000     0.717810000000     0.069530000000    -0.400291   
O87      O      0.838560000000     0.741880000000     0.198080000000    -0.407064   
O88      O      0.904600000000     0.684410000000     0.121310000000    -0.398984   
O89      O      0.514620000000     0.928860000000     0.505660000000    -0.404835   
O90      O      0.437630000000     0.984110000000     0.534840000000    -0.403333   
O91      O      0.466320000000     0.955000000000     0.424990000000    -0.406663   
O92      O      0.487160000000     0.957010000000     0.617930000000    -0.399938   
O93      O      0.545470000000     0.025000000000     0.609880000000    -0.397535   
O94      O      0.526510000000     0.021400000000     0.415440000000    -0.400184   
O95      O      0.497490000000     0.050350000000     0.523880000000    -0.403846   
O96      O      0.575210000000     0.995390000000     0.499050000000    -0.398008   
O97      O      0.351700000000     0.116010000000     0.209550000000    -0.401586   
O98      O      0.400010000000     0.242380000000     0.151390000000    -0.40288    
O99      O      0.374470000000     0.198350000000     0.273980000000    -0.398028   
O100     O      0.378530000000     0.162660000000     0.088830000000    -0.405613   
O101     O      0.309060000000     0.148390000000     0.073040000000    -0.397544   
O102     O      0.304710000000     0.184050000000     0.259240000000    -0.396169   
O103     O      0.330830000000     0.229310000000     0.135290000000    -0.398135   
O104     O      0.282820000000     0.103420000000     0.194700000000    -0.402319   
O105     O      0.490240000000     0.437340000000     0.009280000000    -0.405998   
O106     O      0.566510000000     0.562200000000     0.944940000000    -0.40021    
O107     O      0.547850000000     0.518630000000     0.068300000000    -0.404302   
O108     O      0.507040000000     0.478780000000     0.884260000000    -0.398563   
O109     O      0.451020000000     0.492160000000     0.897850000000    -0.400828   
O110     O      0.491400000000     0.531000000000     0.082570000000    -0.398851   
O111     O      0.509430000000     0.573880000000     0.958750000000    -0.401031   
O112     O      0.432800000000     0.448380000000     0.022470000000    -0.402197   
O113     O      0.251270000000     0.894770000000     0.280010000000    -0.398183   
O114     O      0.179280000000     0.761290000000     0.289630000000    -0.403418   
O115     O      0.210810000000     0.823920000000     0.186810000000    -0.402647   
O116     O      0.219190000000     0.830290000000     0.381420000000    -0.408749   
O117     O      0.156590000000     0.833390000000     0.386820000000    -0.399874   
O118     O      0.149440000000     0.829480000000     0.190410000000    -0.397431   
O119     O      0.116310000000     0.763880000000     0.292720000000    -0.397554   
O120     O      0.188330000000     0.897240000000     0.286400000000    -0.40184    
O121     O      0.018190000000     0.448360000000     0.517470000000    -0.397449   
O122     O      0.081690000000     0.573110000000     0.448030000000    -0.406839   
O123     O      0.052770000000     0.534870000000     0.573720000000    -0.399803   
O124     O      0.047970000000     0.488400000000     0.392320000000    -0.400331   
O125     O      0.981600000000     0.483070000000     0.377630000000    -0.404049   
O126     O      0.986550000000     0.529560000000     0.558180000000    -0.40186    
O127     O      0.016800000000     0.569940000000     0.432360000000    -0.398929   
O128     O      0.952740000000     0.444540000000     0.500650000000    -0.401332   
O129     O      0.904630000000     0.224770000000     0.583990000000    -0.400552   
O130     O      0.841860000000     0.098720000000     0.647810000000    -0.402372   
O131     O      0.850660000000     0.139380000000     0.524960000000    -0.4005     
O132     O      0.894770000000     0.182910000000     0.707060000000    -0.399008   
O133     O      0.833580000000     0.187340000000     0.725070000000    -0.404129   
O134     O      0.790810000000     0.145730000000     0.543260000000    -0.406844   
O135     O      0.779790000000     0.101600000000     0.664400000000    -0.397176   
O136     O      0.843800000000     0.229080000000     0.605150000000    -0.40569    
O137     O      0.680850000000     0.765060000000     0.820810000000    -0.403166   
O138     O      0.744590000000     0.895990000000     0.782810000000    -0.407684   
O139     O      0.709930000000     0.844630000000     0.896440000000    -0.403137   
O140     O      0.716770000000     0.818240000000     0.707100000000    -0.403294   
O141     O      0.650320000000     0.812190000000     0.690330000000    -0.402184   
O142     O      0.643830000000     0.839280000000     0.879540000000    -0.400558   
O143     O      0.679640000000     0.892500000000     0.765980000000    -0.399062   
O144     O      0.615830000000     0.761600000000     0.804100000000    -0.405625   


