data_structure

_audit_creation_method RASPA-1.0
_audit_creation_date 2023-6-5
_audit_author_name 'Poobodin Mano'

_cell_length_a    35.083
_cell_length_b    34.6619
_cell_length_c    20.3891
_cell_angle_alpha 89.9802
_cell_angle_beta  90.0199
_cell_angle_gamma 119.984
_cell_volume      21475.7

_symmetry_cell_setting          triclinic
_symmetry_space_group_name_Hall 'P 1'
_symmetry_space_group_name_H-M  'P 1'
_symmetry_Int_Tables_number     1

_symmetry_equiv_pos_as_xyz 'x,y,z'

loop_
_atom_site_label
_atom_site_type_symbol
_atom_site_fract_x
_atom_site_fract_y
_atom_site_fract_z
_atom_site_charge
C1       C      0.756240000000     0.626640000000     0.608040000000     0.400454   
C2       C      0.922510000000     0.706740000000     0.690180000000     0.400308   
C3       C      0.863580000000     0.666900000000     0.524460000000     0.397293   
C4       C      0.815420000000     0.665770000000     0.773150000000     0.396772   
C5       C      0.092120000000     0.799980000000     0.777350000000     0.400863   
C6       C      0.243930000000     0.895200000000     0.903390000000     0.402246   
C7       C      0.205800000000     0.882120000000     0.725490000000     0.400394   
C8       C      0.131550000000     0.813800000000     0.956550000000     0.399962   
C9       C      0.415560000000     0.985270000000     0.967090000000     0.402322   
C10      C      0.581920000000     0.059170000000     0.046130000000     0.401671   
C11      C      0.523080000000     0.023420000000     0.884180000000     0.402279   
C12      C      0.473500000000     0.021480000000     0.130950000000     0.403045   
C13      C      0.243770000000     0.364210000000     0.406060000000     0.401582   
C14      C      0.083260000000     0.295800000000     0.303850000000     0.400383   
C15      C      0.131360000000     0.329020000000     0.471430000000     0.403768   
C16      C      0.197560000000     0.331800000000     0.235990000000     0.402715   
C17      C      0.914540000000     0.218610000000     0.209630000000     0.400981   
C18      C      0.742690000000     0.132560000000     0.159040000000     0.402071   
C19      C      0.809100000000     0.154060000000     0.310640000000     0.403041   
C20      C      0.847090000000     0.196260000000     0.059360000000     0.402489   
C21      C      0.417940000000     0.448580000000     0.452850000000     0.401577   
C22      C      0.581380000000     0.537660000000     0.546090000000     0.400742   
C23      C      0.527880000000     0.520700000000     0.376990000000     0.398056   
C24      C      0.470960000000     0.465390000000     0.620140000000     0.401064   
C25      C      0.126030000000     0.366580000000     0.874860000000     0.400536   
C26      C      0.227100000000     0.296320000000     0.819640000000     0.400269   
C27      C      0.192680000000     0.331050000000     0.975990000000     0.401041   
C28      C      0.159020000000     0.330820000000     0.721860000000     0.402684   
C29      C      0.392620000000     0.150170000000     0.579170000000     0.398746   
C30      C      0.310420000000     0.233130000000     0.672030000000     0.399297   
C31      C      0.349400000000     0.220400000000     0.504150000000     0.401078   
C32      C      0.353200000000     0.164640000000     0.746150000000     0.399307   
C33      C      0.034280000000     0.451220000000     0.887730000000     0.400437   
C34      C      0.964560000000     0.540360000000     0.000260000000     0.400926   
C35      C      0.996660000000     0.529340000000     0.826350000000     0.401315   
C36      C      0.001970000000     0.462890000000     0.059620000000     0.400633   
C37      C      0.650170000000     0.891910000000     0.366560000000     0.399415   
C38      C      0.719100000000     0.794420000000     0.282380000000     0.400688   
C39      C      0.684360000000     0.815150000000     0.447810000000     0.401418   
C40      C      0.685650000000     0.869510000000     0.203230000000     0.400388   
C41      C      0.799790000000     0.702170000000     0.209270000000     0.400977   
C42      C      0.882650000000     0.628680000000     0.089180000000     0.400639   
C43      C      0.874900000000     0.662440000000     0.265150000000     0.399293   
C44      C      0.807410000000     0.668800000000     0.033430000000     0.399287   
C45      C      0.573540000000     0.981790000000     0.473690000000     0.399553   
C46      C      0.484260000000     0.062840000000     0.542600000000     0.398222   
C47      C      0.506400000000     0.022490000000     0.383010000000     0.401155   
C48      C      0.552380000000     0.022350000000     0.631340000000     0.40333    
C49      C      0.310250000000     0.090550000000     0.168710000000     0.400659   
C50      C      0.391800000000     0.257780000000     0.081170000000     0.399802   
C51      C      0.351890000000     0.201810000000     0.246820000000     0.399074   
C52      C      0.350240000000     0.144730000000     0.003820000000     0.401389   
C53      C      0.481230000000     0.436720000000     0.040740000000     0.399538   
C54      C      0.567990000000     0.603780000000     0.952070000000     0.398894   
C55      C      0.550970000000     0.548230000000     0.119580000000     0.40014    
C56      C      0.498890000000     0.492570000000     0.874910000000     0.398552   
C57      C      0.125870000000     0.768000000000     0.373150000000     0.401448   
C58      C      0.225330000000     0.938640000000     0.307280000000     0.401372   
C59      C      0.195140000000     0.872800000000     0.466040000000     0.398013   
C60      C      0.154560000000     0.833370000000     0.213440000000     0.397733   
C61      C      0.965740000000     0.419620000000     0.477240000000     0.403345   
C62      C      0.036760000000     0.588870000000     0.403210000000     0.400822   
C63      C      0.000910000000     0.525350000000     0.565620000000     0.397247   
C64      C      0.000870000000     0.481740000000     0.315100000000     0.399018   
C65      C      0.902650000000     0.286370000000     0.644440000000     0.402758   
C66      C      0.812060000000     0.120690000000     0.735820000000     0.401174   
C67      C      0.832670000000     0.176040000000     0.568680000000     0.401379   
C68      C      0.883580000000     0.232770000000     0.812210000000     0.403626   
C69      C      0.650620000000     0.779570000000     0.878410000000     0.399206   
C70      C      0.722420000000     0.943390000000     0.778790000000     0.40087    
C71      C      0.689400000000     0.893330000000     0.947860000000     0.40216    
C72      C      0.683310000000     0.831250000000     0.707080000000     0.399303   
C73      C      0.788810000000     0.009090000000     0.735210000000    -0.0104086  
C74      C      0.717470000000     0.009160000000     0.740860000000    -0.0122037  
C75      C      0.811710000000     0.052650000000     0.772920000000    -0.0111412  
C76      C      0.741550000000     0.055540000000     0.773320000000    -0.0124541  
C77      C      0.900710000000     0.353360000000     0.521870000000    -0.0111659  
C78      C      0.973570000000     0.356670000000     0.520210000000    -0.011074   
C79      C      0.899720000000     0.350190000000     0.596500000000    -0.0110467  
C80      C      0.970430000000     0.348610000000     0.594720000000    -0.0119975  
C81      C      0.103360000000     0.657060000000     0.367060000000    -0.010404   
C82      C      0.031000000000     0.655270000000     0.370630000000    -0.0132296  
C83      C      0.124250000000     0.699120000000     0.407900000000    -0.0105082  
C84      C      0.053970000000     0.701640000000     0.403660000000    -0.0120764  
C85      C      0.635710000000     0.668510000000     0.907030000000    -0.0122327  
C86      C      0.563250000000     0.666750000000     0.904340000000    -0.0113589  
C87      C      0.658720000000     0.718020000000     0.926510000000    -0.0120977  
C88      C      0.585690000000     0.714890000000     0.927470000000    -0.0115132  
C89      C      0.230190000000     0.009420000000     0.273440000000    -0.0111546  
C90      C      0.298540000000     0.003780000000     0.279600000000    -0.0116042  
C91      C      0.240430000000     0.024420000000     0.202250000000    -0.0115798  
C92      C      0.311490000000     0.023520000000     0.210220000000    -0.0124521  
C93      C      0.482440000000     0.369520000000     0.079140000000    -0.0113795  
C94      C      0.411390000000     0.370480000000     0.076710000000    -0.0122134  
C95      C      0.460320000000     0.324580000000     0.044360000000    -0.0114099  
C96      C      0.388730000000     0.324480000000     0.043640000000    -0.0120602  
C97      C      0.642230000000     0.800360000000     0.604710000000    -0.0113392  
C98      C      0.726420000000     0.840140000000     0.608140000000    -0.0128105  
C99      C      0.643510000000     0.773250000000     0.546420000000    -0.0111596  
C100     C      0.725110000000     0.814240000000     0.546720000000    -0.00946537 
C101     C      0.731270000000     0.932650000000     0.047610000000    -0.00933498 
C102     C      0.649860000000     0.895570000000     0.046620000000    -0.0112886  
C103     C      0.730290000000     0.903810000000     0.105020000000    -0.0127069  
C104     C      0.646170000000     0.863200000000     0.100530000000    -0.0110745  
C105     C      0.710440000000     0.723300000000     0.239220000000    -0.0123947  
C106     C      0.784350000000     0.793730000000     0.238900000000    -0.0112414  
C107     C      0.732990000000     0.696970000000     0.260770000000    -0.0118314  
C108     C      0.805430000000     0.767900000000     0.265410000000    -0.010508   
C109     C      0.644200000000     0.983550000000     0.450380000000    -0.0123212  
C110     C      0.573050000000     0.911060000000     0.456240000000    -0.0113301  
C111     C      0.657990000000     0.965970000000     0.390780000000    -0.0125085  
C112     C      0.583740000000     0.896280000000     0.392120000000    -0.0112396  
C113     C      0.956090000000     0.508510000000     0.665060000000    -0.012714   
C114     C      0.040110000000     0.552120000000     0.670470000000    -0.011585   
C115     C      0.955040000000     0.531200000000     0.728900000000    -0.00986156 
C116     C      0.036530000000     0.576330000000     0.730830000000    -0.0116349  
C117     C      0.961780000000     0.420750000000     0.158010000000    -0.0113838  
C118     C      0.043300000000     0.462720000000     0.158160000000    -0.00914296 
C119     C      0.960080000000     0.450400000000     0.212280000000    -0.0109678  
C120     C      0.044170000000     0.491650000000     0.215370000000    -0.0128087  
C121     C      0.900120000000     0.537640000000     0.053820000000    -0.0112058  
C122     C      0.972870000000     0.608950000000     0.052700000000    -0.0114478  
C123     C      0.877100000000     0.562940000000     0.032960000000    -0.0110177  
C124     C      0.949110000000     0.634810000000     0.035400000000    -0.0121574  
C125     C      0.393220000000     0.173220000000     0.848970000000    -0.0110147  
C126     C      0.309030000000     0.129800000000     0.844120000000    -0.0127211  
C127     C      0.390670000000     0.143100000000     0.905670000000    -0.0113236  
C128     C      0.309080000000     0.103730000000     0.904570000000    -0.00911678 
C129     C      0.307770000000     0.218750000000     0.404780000000    -0.00915764 
C130     C      0.389340000000     0.262370000000     0.405360000000    -0.0113992  
C131     C      0.307760000000     0.192120000000     0.344950000000    -0.0128124  
C132     C      0.391910000000     0.234270000000     0.349510000000    -0.0110791  
C133     C      0.413720000000     0.058390000000     0.574420000000    -0.0124044  
C134     C      0.484420000000     0.131860000000     0.574820000000    -0.0119324  
C135     C      0.390340000000     0.080760000000     0.541380000000    -0.0119823  
C136     C      0.461210000000     0.153510000000     0.540400000000    -0.0113324  
C137     C      0.029650000000     0.379870000000     0.853470000000    -0.0133018  
C138     C      0.100580000000     0.451780000000     0.846690000000    -0.00964553 
C139     C      0.052530000000     0.359670000000     0.894480000000    -0.0124607  
C140     C      0.121950000000     0.434670000000     0.894310000000    -0.0111719  
C141     C      0.300170000000     0.305490000000     0.789980000000    -0.0117933  
C142     C      0.232030000000     0.230790000000     0.783730000000    -0.0114599  
C143     C      0.311820000000     0.300270000000     0.719010000000    -0.0126165  
C144     C      0.240960000000     0.227180000000     0.711400000000    -0.0117355  
C145     C      0.433240000000     0.468260000000     0.721240000000    -0.00895682 
C146     C      0.474810000000     0.427710000000     0.720650000000    -0.0114999  
C147     C      0.462040000000     0.498800000000     0.776390000000    -0.0129323  
C148     C      0.506700000000     0.459010000000     0.772880000000    -0.0115075  
C149     C      0.589280000000     0.545180000000     0.219680000000    -0.0114981  
C150     C      0.546980000000     0.585040000000     0.221650000000    -0.00949464 
C151     C      0.560250000000     0.513290000000     0.273780000000    -0.0114991  
C152     C      0.518910000000     0.556400000000     0.278860000000    -0.0129448  
C153     C      0.880670000000     0.188760000000     0.957590000000    -0.0107088  
C154     C      0.842180000000     0.234630000000     0.960670000000    -0.0119125  
C155     C      0.916250000000     0.224780000000     0.914060000000    -0.0122082  
C156     C      0.877210000000     0.267910000000     0.913900000000    -0.00896834 
C157     C      0.772530000000     0.158590000000     0.411600000000    -0.00911577 
C158     C      0.811760000000     0.115460000000     0.410930000000    -0.0110275  
C159     C      0.800130000000     0.186740000000     0.469110000000    -0.0121613  
C160     C      0.842110000000     0.144170000000     0.466370000000    -0.0110954  
C161     C      0.134630000000     0.370870000000     0.570630000000    -0.011836   
C162     C      0.093520000000     0.288310000000     0.572050000000    -0.00863923 
C163     C      0.168790000000     0.372210000000     0.618880000000    -0.0111869  
C164     C      0.125570000000     0.287300000000     0.621600000000    -0.0121347  
C165     C      0.242580000000     0.374480000000     0.140290000000    -0.00938111 
C166     C      0.203830000000     0.291860000000     0.139990000000    -0.0113038  
C167     C      0.219430000000     0.375000000000     0.077070000000    -0.0126602  
C168     C      0.176940000000     0.289860000000     0.079820000000    -0.0109694  
C169     C      0.984240000000     0.217310000000     0.215430000000    -0.00975493 
C170     C      0.985300000000     0.289820000000     0.222800000000    -0.0102539  
C171     C      0.013150000000     0.228840000000     0.275980000000    -0.0126469  
C172     C      0.018730000000     0.304430000000     0.279260000000    -0.013419   
C173     C      0.309770000000     0.430110000000     0.449900000000    -0.0105362  
C174     C      0.306260000000     0.356080000000     0.447560000000    -0.0119105  
C175     C      0.352850000000     0.450960000000     0.412380000000    -0.0105968  
C176     C      0.352270000000     0.378180000000     0.415660000000    -0.0126131  
C177     C      0.546890000000     0.980850000000     0.732830000000    -0.00879493 
C178     C      0.588260000000     0.063600000000     0.732360000000    -0.0114584  
C179     C      0.515300000000     0.980040000000     0.784850000000    -0.0122007  
C180     C      0.556450000000     0.065030000000     0.782390000000    -0.0111764  
C181     C      0.514580000000     0.063770000000     0.280590000000    -0.0111496  
C182     C      0.470010000000     0.978960000000     0.284020000000    -0.012421   
C183     C      0.480750000000     0.063170000000     0.232430000000    -0.0116758  
C184     C      0.438780000000     0.980440000000     0.233230000000    -0.00882023 
C185     C      0.672850000000     0.062280000000     0.135910000000    -0.0117718  
C186     C      0.673980000000     0.134960000000     0.143020000000    -0.0112503  
C187     C      0.647420000000     0.051960000000     0.071100000000    -0.0118608  
C188     C      0.651660000000     0.126590000000     0.076280000000    -0.0115566  
C189     C      0.182310000000     0.900510000000     0.570020000000    -0.0112556  
C190     C      0.225280000000     0.858900000000     0.566440000000    -0.0130143  
C191     C      0.210740000000     0.927140000000     0.628320000000    -0.0116664  
C192     C      0.249700000000     0.884050000000     0.628510000000    -0.00985663 
C193     C      0.092700000000     0.815340000000     0.057470000000    -0.00979904 
C194     C      0.132750000000     0.773320000000     0.055720000000    -0.0119111  
C195     C      0.121570000000     0.844680000000     0.113730000000    -0.0128453  
C196     C      0.164600000000     0.803410000000     0.109040000000    -0.0114589  
C197     C      0.350920000000     0.990330000000     0.927460000000    -0.0131134  
C198     C      0.350020000000     0.917050000000     0.928670000000    -0.0107616  
C199     C      0.302930000000     0.965950000000     0.952490000000    -0.0114635  
C200     C      0.305460000000     0.895350000000     0.961610000000    -0.00969593 
C201     C      0.762380000000     0.628250000000     0.936920000000    -0.0115552  
C202     C      0.805200000000     0.710770000000     0.935910000000    -0.00953072 
C203     C      0.787610000000     0.625640000000     0.877420000000    -0.0112969  
C204     C      0.828480000000     0.710720000000     0.872300000000    -0.0132797  
C205     C      0.876140000000     0.621260000000     0.364230000000    -0.00976884 
C206     C      0.918650000000     0.703790000000     0.362140000000    -0.0114975  
C207     C      0.851290000000     0.621630000000     0.425800000000    -0.0130928  
C208     C      0.892200000000     0.706620000000     0.419870000000    -0.0113927  
C209     C      0.644200000000     0.606930000000     0.591270000000    -0.0118784  
C210     C      0.645000000000     0.534980000000     0.593010000000    -0.0111632  
C211     C      0.691980000000     0.631230000000     0.566720000000    -0.0120626  
C212     C      0.691630000000     0.558480000000     0.565880000000    -0.0113756  
C213     C      0.032090000000     0.800340000000     0.714890000000    -0.0112064  
C214     C      0.036140000000     0.730430000000     0.721880000000    -0.012493   
C215     C      0.984250000000     0.775300000000     0.735760000000    -0.010592   
C216     C      0.986450000000     0.703630000000     0.736850000000    -0.0117364  
Cu1      Cu     0.842610000000     0.703240000000     0.640690000000     0.843011   
Cu2      Cu     0.836290000000     0.629660000000     0.656820000000     0.837755   
Cu3      Cu     0.159910000000     0.878130000000     0.847800000000     0.840802   
Cu4      Cu     0.176170000000     0.817060000000     0.833320000000     0.843963   
Cu5      Cu     0.503110000000     0.059990000000     0.000300000000     0.841138   
Cu6      Cu     0.493950000000     0.985050000000     0.014950000000     0.853637   
Cu7      Cu     0.170240000000     0.368150000000     0.344780000000     0.846459   
Cu8      Cu     0.157630000000     0.292090000000     0.362300000000     0.845429   
Cu9      Cu     0.827170000000     0.210020000000     0.193660000000     0.845987   
Cu10     Cu     0.829770000000     0.140790000000     0.176580000000     0.846773   
Cu11     Cu     0.495520000000     0.526080000000     0.507430000000     0.846045   
Cu12     Cu     0.504070000000     0.460260000000     0.490250000000     0.838996   
Cu13     Cu     0.144210000000     0.293230000000     0.853840000000     0.843176   
Cu14     Cu     0.208570000000     0.368880000000     0.843430000000     0.846989   
Cu15     Cu     0.315560000000     0.158310000000     0.615490000000     0.843684   
Cu16     Cu     0.387700000000     0.225770000000     0.634010000000     0.838735   
Cu17     Cu     0.961990000000     0.463990000000     0.934000000000     0.839565   
Cu18     Cu     0.036610000000     0.527960000000     0.951970000000     0.845313   
Cu19     Cu     0.647220000000     0.810930000000     0.317450000000     0.842762   
Cu20     Cu     0.722110000000     0.874710000000     0.334210000000     0.843472   
Cu21     Cu     0.809300000000     0.628000000000     0.158780000000     0.839633   
Cu22     Cu     0.873120000000     0.702930000000     0.139560000000     0.841281   
Cu23     Cu     0.495830000000     0.985820000000     0.515450000000     0.84807    
Cu24     Cu     0.562350000000     0.059330000000     0.499500000000     0.838042   
Cu25     Cu     0.387430000000     0.177050000000     0.134330000000     0.840165   
Cu26     Cu     0.315130000000     0.171090000000     0.115310000000     0.845385   
Cu27     Cu     0.557850000000     0.516800000000     0.988910000000     0.837758   
Cu28     Cu     0.491980000000     0.524040000000     0.005530000000     0.84246    
Cu29     Cu     0.207150000000     0.847780000000     0.333230000000     0.844087   
Cu30     Cu     0.143210000000     0.858720000000     0.346160000000     0.838556   
Cu31     Cu     0.038300000000     0.509140000000     0.446900000000     0.846583   
Cu32     Cu     0.963930000000     0.499160000000     0.433260000000     0.841482   
Cu33     Cu     0.890170000000     0.199200000000     0.683550000000     0.84614    
Cu34     Cu     0.825210000000     0.208370000000     0.698090000000     0.848099   
Cu35     Cu     0.723320000000     0.866340000000     0.835620000000     0.844547   
Cu36     Cu     0.649110000000     0.856500000000     0.820570000000     0.84077    
H1       H      0.716010000000     0.013860000000     0.687160000000     0.0403842  
H2       H      0.792340000000     0.016900000000     0.681860000000     0.0397653  
H3       H      0.847190000000     0.070820000000     0.759820000000     0.0425235  
H4       H      0.683170000000     0.990520000000     0.759650000000     0.043017   
H5       H      0.726270000000     0.075190000000     0.756400000000     0.0433482  
H6       H      0.736620000000     0.050950000000     0.827240000000     0.0400774  
H7       H      0.805560000000     0.989690000000     0.745320000000     0.0423355  
H8       H      0.809230000000     0.044880000000     0.826220000000     0.0404108  
H9       H      0.959900000000     0.323790000000     0.495470000000     0.0405197  
H10      H      0.884090000000     0.319040000000     0.501260000000     0.0396426  
H11      H      0.864980000000     0.332950000000     0.613430000000     0.0427423  
H12      H      0.008670000000     0.377070000000     0.505570000000     0.0436253  
H13      H      0.986050000000     0.328550000000     0.607690000000     0.0433867  
H14      H      0.989480000000     0.381510000000     0.619300000000     0.0409795  
H15      H      0.881960000000     0.369720000000     0.505810000000     0.0424788  
H16      H      0.916330000000     0.384510000000     0.617110000000     0.040204   
H17      H      0.029560000000     0.660170000000     0.316990000000     0.0401427  
H18      H      0.108090000000     0.666590000000     0.314320000000     0.0401775  
H19      H      0.160240000000     0.717760000000     0.398380000000     0.0427059  
H20      H      0.996630000000     0.635830000000     0.388980000000     0.0433922  
H21      H      0.039180000000     0.721330000000     0.384840000000     0.0421537  
H22      H      0.047380000000     0.696790000000     0.457240000000     0.0397531  
H23      H      0.120640000000     0.638120000000     0.376650000000     0.0425637  
H24      H      0.119490000000     0.689580000000     0.460630000000     0.0403985  
H25      H      0.561770000000     0.666580000000     0.849840000000     0.0396411  
H26      H      0.638370000000     0.666440000000     0.852950000000     0.0404797  
H27      H      0.692120000000     0.735370000000     0.904280000000     0.0427496  
H28      H      0.528840000000     0.649220000000     0.922760000000     0.0426705  
H29      H      0.567010000000     0.730660000000     0.908580000000     0.042451   
H30      H      0.584110000000     0.714980000000     0.981950000000     0.0397698  
H31      H      0.653380000000     0.652900000000     0.930290000000     0.0429377  
H32      H      0.662740000000     0.720280000000     0.980720000000     0.0403191  
H33      H      0.314930000000     0.031620000000     0.315280000000     0.0393419  
H34      H      0.244760000000     0.039480000000     0.305350000000     0.0396283  
H35      H      0.225220000000     0.045010000000     0.190320000000     0.042892   
H36      H      0.311350000000     0.980680000000     0.288350000000     0.0429837  
H37      H      0.347880000000     0.044690000000     0.207280000000     0.0444385  
H38      H      0.301370000000     0.995480000000     0.175180000000     0.0405392  
H39      H      0.193950000000     0.991450000000     0.280630000000     0.0423035  
H40      H      0.224950000000     0.994410000000     0.170280000000     0.0403308  
H41      H      0.405980000000     0.365530000000     0.130520000000     0.0403663  
H42      H      0.480520000000     0.363370000000     0.132900000000     0.0395772  
H43      H      0.476820000000     0.305680000000     0.059180000000     0.042423   
H44      H      0.395550000000     0.389520000000     0.059360000000     0.0432833  
H45      H      0.353830000000     0.305750000000     0.059840000000     0.0434608  
H46      H      0.389050000000     0.329470000000     0.989720000000     0.0401939  
H47      H      0.517840000000     0.388120000000     0.065510000000     0.0424095  
H48      H      0.465300000000     0.330710000000     0.990660000000     0.0395113  
H49      H      0.735580000000     0.874560000000     0.593160000000     0.0420012  
H50      H      0.637130000000     0.827590000000     0.586000000000     0.0434441  
H51      H      0.613650000000     0.762580000000     0.515810000000     0.0415546  
H52      H      0.753130000000     0.842910000000     0.640670000000     0.0424764  
H53      H      0.755040000000     0.834550000000     0.516600000000     0.0405661  
H54      H      0.725760000000     0.783880000000     0.562680000000     0.0363688  
H55      H      0.613520000000     0.778390000000     0.636140000000     0.0400118  
H56      H      0.643100000000     0.742970000000     0.565480000000     0.0380404  
H57      H      0.651640000000     0.925410000000     0.070070000000     0.0376906  
H58      H      0.733740000000     0.963570000000     0.068050000000     0.0365446  
H59      H      0.757830000000     0.924820000000     0.138860000000     0.0423022  
H60      H      0.619910000000     0.879440000000     0.015350000000     0.0419141  
H61      H      0.617520000000     0.855840000000     0.132290000000     0.0399967  
H62      H      0.639750000000     0.831430000000     0.077440000000     0.0431618  
H63      H      0.761020000000     0.942540000000     0.017100000000     0.0403995  
H64      H      0.736710000000     0.877630000000     0.085530000000     0.0420451  
H65      H      0.787220000000     0.794940000000     0.184520000000     0.0407314  
H66      H      0.706490000000     0.720620000000     0.185020000000     0.0409348  
H67      H      0.715350000000     0.663200000000     0.238450000000     0.0428007  
H68      H      0.803150000000     0.828520000000     0.257230000000     0.0428039  
H69      H      0.840570000000     0.784780000000     0.250400000000     0.042026   
H70      H      0.804490000000     0.768640000000     0.319910000000     0.0392228  
H71      H      0.677030000000     0.707620000000     0.261330000000     0.0429963  
H72      H      0.730080000000     0.693040000000     0.314980000000     0.0397771  
H73      H      0.584800000000     0.898660000000     0.497480000000     0.0401292  
H74      H      0.658830000000     0.977670000000     0.495000000000     0.0395278  
H75      H      0.693880000000     0.978180000000     0.393840000000     0.0436646  
H76      H      0.536710000000     0.895240000000     0.460440000000     0.0428245  
H77      H      0.566450000000     0.859280000000     0.391560000000     0.0424454  
H78      H      0.570730000000     0.907370000000     0.350880000000     0.0404129  
H79      H      0.658460000000     0.020140000000     0.445310000000     0.0433543  
H80      H      0.652410000000     0.980640000000     0.345820000000     0.0400368  
H81      H      0.046360000000     0.525180000000     0.686940000000     0.0431366  
H82      H      0.949110000000     0.474290000000     0.677060000000     0.040742   
H83      H      0.925310000000     0.508340000000     0.757760000000     0.040798   
H84      H      0.068860000000     0.576070000000     0.640670000000     0.0398413  
H85      H      0.066460000000     0.587850000000     0.761560000000     0.041925   
H86      H      0.035000000000     0.606090000000     0.714110000000     0.0377632  
H87      H      0.928860000000     0.504910000000     0.632980000000     0.0421359  
H88      H      0.952280000000     0.560870000000     0.715820000000     0.0369043  
H89      H      0.044210000000     0.433470000000     0.178810000000     0.036328   
H90      H      0.962040000000     0.391830000000     0.181220000000     0.038408   
H91      H      0.931260000000     0.429770000000     0.244330000000     0.0402779  
H92      H      0.073120000000     0.481630000000     0.127230000000     0.0401837  
H93      H      0.071740000000     0.497690000000     0.248620000000     0.0425703  
H94      H      0.051620000000     0.524570000000     0.195460000000     0.0424388  
H95      H      0.931790000000     0.407960000000     0.127040000000     0.0419239  
H96      H      0.955060000000     0.476670000000     0.189450000000     0.0430527  
H97      H      0.977450000000     0.610230000000     0.106780000000     0.0404099  
H98      H      0.899130000000     0.535350000000     0.108270000000     0.0400423  
H99      H      0.842750000000     0.545190000000     0.051640000000     0.0423452  
H100     H      0.005990000000     0.625900000000     0.029580000000     0.0427372  
H101     H      0.966880000000     0.668230000000     0.058770000000     0.0432145  
H102     H      0.950680000000     0.639620000000     0.981340000000     0.0408919  
H103     H      0.881520000000     0.503150000000     0.034250000000     0.0424031  
H104     H      0.875450000000     0.562590000000     0.978460000000     0.0396955  
H105     H      0.300820000000     0.155460000000     0.860160000000     0.0414998  
H106     H      0.398780000000     0.205390000000     0.869360000000     0.0434456  
H107     H      0.420490000000     0.161190000000     0.936870000000     0.0413452  
H108     H      0.282170000000     0.106710000000     0.810790000000     0.0427336  
H109     H      0.279250000000     0.094290000000     0.934690000000     0.0402675  
H110     H      0.307370000000     0.072430000000     0.887450000000     0.0360579  
H111     H      0.422010000000     0.180430000000     0.817650000000     0.0396664  
H112     H      0.390070000000     0.113090000000     0.885020000000     0.03873    
H113     H      0.388480000000     0.291420000000     0.383800000000     0.0386117  
H114     H      0.305750000000     0.248000000000     0.386880000000     0.0361099  
H115     H      0.280750000000     0.187510000000     0.311490000000     0.042621   
H116     H      0.419270000000     0.274980000000     0.436440000000     0.0412807  
H117     H      0.420670000000     0.255930000000     0.317940000000     0.0396661  
H118     H      0.397560000000     0.207990000000     0.370770000000     0.0434211  
H119     H      0.278070000000     0.198160000000     0.435220000000     0.0402504  
H120     H      0.299820000000     0.158400000000     0.361820000000     0.0416178  
H121     H      0.483550000000     0.136910000000     0.628550000000     0.0398991  
H122     H      0.408400000000     0.057860000000     0.628250000000     0.0406413  
H123     H      0.355500000000     0.063830000000     0.557940000000     0.0431763  
H124     H      0.519510000000     0.149230000000     0.559530000000     0.0425364  
H125     H      0.477420000000     0.189230000000     0.554470000000     0.0422907  
H126     H      0.465580000000     0.152030000000     0.486600000000     0.0388672  
H127     H      0.398200000000     0.023300000000     0.557290000000     0.043207   
H128     H      0.390490000000     0.075920000000     0.487480000000     0.0398546  
H129     H      0.105960000000     0.443660000000     0.795950000000     0.0389208  
H130     H      0.030720000000     0.371560000000     0.801070000000     0.0411224  
H131     H      0.038990000000     0.324240000000     0.880190000000     0.044003   
H132     H      0.116620000000     0.488630000000     0.850420000000     0.0416666  
H133     H      0.158020000000     0.452680000000     0.885500000000     0.0431353  
H134     H      0.116500000000     0.442640000000     0.945090000000     0.0420728  
H135     H      0.994540000000     0.364240000000     0.868350000000     0.0454821  
H136     H      0.044200000000     0.360330000000     0.946920000000     0.0398833  
H137     H      0.247430000000     0.215280000000     0.813420000000     0.0393887  
H138     H      0.317140000000     0.293460000000     0.823260000000     0.0394753  
H139     H      0.348150000000     0.316270000000     0.714230000000     0.0439704  
H140     H      0.195970000000     0.211750000000     0.792590000000     0.0423001  
H141     H      0.225920000000     0.191380000000     0.698380000000     0.0427629  
H142     H      0.224480000000     0.241520000000     0.681600000000     0.0406127  
H143     H      0.313180000000     0.341350000000     0.800750000000     0.0430719  
H144     H      0.300810000000     0.318530000000     0.686370000000     0.0408678  
H145     H      0.447050000000     0.398850000000     0.745770000000     0.0380785  
H146     H      0.404250000000     0.439270000000     0.743980000000     0.0361858  
H147     H      0.440940000000     0.505150000000     0.810240000000     0.0424648  
H148     H      0.492100000000     0.415060000000     0.689240000000     0.0410094  
H149     H      0.516610000000     0.439660000000     0.805230000000     0.0400658  
H150     H      0.536810000000     0.485220000000     0.748100000000     0.0428424  
H151     H      0.420850000000     0.486040000000     0.690180000000     0.0400175  
H152     H      0.486170000000     0.531390000000     0.754470000000     0.0423191  
H153     H      0.575550000000     0.615410000000     0.242410000000     0.0368176  
H154     H      0.617940000000     0.574160000000     0.243080000000     0.0382595  
H155     H      0.580790000000     0.504620000000     0.305290000000     0.0399894  
H156     H      0.527700000000     0.595960000000     0.191400000000     0.0405176  
H157     H      0.512830000000     0.577840000000     0.312830000000     0.04265    
H158     H      0.486380000000     0.530950000000     0.259120000000     0.0420167  
H159     H      0.601780000000     0.527850000000     0.187920000000     0.0417412  
H160     H      0.534360000000     0.482050000000     0.250630000000     0.0431163  
H161     H      0.812670000000     0.211930000000     0.931240000000     0.0430531  
H162     H      0.856450000000     0.161330000000     0.925850000000     0.0426225  
H163     H      0.931330000000     0.209690000000     0.882830000000     0.0418061  
H164     H      0.832160000000     0.252880000000     0.994980000000     0.0423702  
H165     H      0.862910000000     0.283530000000     0.882040000000     0.0396634  
H166     H      0.903820000000     0.294710000000     0.943740000000     0.0386692  
H167     H      0.896340000000     0.174940000000     0.990260000000     0.0406965  
H168     H      0.942340000000     0.250350000000     0.946060000000     0.0384993  
H169     H      0.782700000000     0.086130000000     0.432900000000     0.0380058  
H170     H      0.742290000000     0.129600000000     0.431710000000     0.037075   
H171     H      0.778750000000     0.193360000000     0.501980000000     0.0420683  
H172     H      0.829590000000     0.103380000000     0.379610000000     0.0411644  
H173     H      0.849780000000     0.122920000000     0.498390000000     0.039983   
H174     H      0.873550000000     0.170450000000     0.444690000000     0.0427358  
H175     H      0.762100000000     0.178190000000     0.380820000000     0.0401632  
H176     H      0.825990000000     0.219470000000     0.449770000000     0.0411406  
H177     H      0.066160000000     0.288370000000     0.599520000000     0.0370095  
H178     H      0.107830000000     0.371360000000     0.599100000000     0.0376534  
H179     H      0.180020000000     0.401740000000     0.651320000000     0.0405489  
H180     H      0.079220000000     0.257870000000     0.540970000000     0.0397048  
H181     H      0.107140000000     0.258570000000     0.655190000000     0.0422377  
H182     H      0.149650000000     0.281320000000     0.594530000000     0.0431524  
H183     H      0.150240000000     0.400950000000     0.538860000000     0.0416441  
H184     H      0.197700000000     0.376270000000     0.590670000000     0.0421979  
H185     H      0.234400000000     0.292720000000     0.123130000000     0.0384938  
H186     H      0.274160000000     0.376350000000     0.126630000000     0.036676   
H187     H      0.243360000000     0.402930000000     0.045790000000     0.0425301  
H188     H      0.184540000000     0.261310000000     0.169950000000     0.0418015  
H189     H      0.171210000000     0.260840000000     0.049250000000     0.0402599  
H190     H      0.144340000000     0.284270000000     0.096310000000     0.0430241  
H191     H      0.250630000000     0.404430000000     0.170180000000     0.0406206  
H192     H      0.192850000000     0.382250000000     0.090030000000     0.0418755  
H193     H      0.003900000000     0.303050000000     0.176280000000     0.03816    
H194     H      0.005770000000     0.228400000000     0.171300000000     0.0384724  
H195     H      0.032960000000     0.211990000000     0.271900000000     0.0423166  
H196     H      0.964390000000     0.305250000000     0.229570000000     0.0429947  
H197     H      0.042700000000     0.340580000000     0.273930000000     0.0440383  
H198     H      0.000740000000     0.300030000000     0.326070000000     0.0405589  
H199     H      0.963000000000     0.180520000000     0.212750000000     0.0424247  
H200     H      0.991700000000     0.215360000000     0.319960000000     0.0417346  
H201     H      0.310450000000     0.355090000000     0.501490000000     0.0406824  
H202     H      0.317340000000     0.434100000000     0.503290000000     0.039946   
H203     H      0.372080000000     0.487090000000     0.423930000000     0.0425107  
H204     H      0.286690000000     0.321180000000     0.429810000000     0.042767   
H205     H      0.370400000000     0.361720000000     0.434230000000     0.0441931  
H206     H      0.347910000000     0.372470000000     0.361840000000     0.0399936  
H207     H      0.291960000000     0.448280000000     0.438460000000     0.0420618  
H208     H      0.345290000000     0.447750000000     0.358990000000     0.0403424  
H209     H      0.615950000000     0.063830000000     0.759330000000     0.0382991  
H210     H      0.574530000000     0.980030000000     0.758270000000     0.0372545  
H211     H      0.506540000000     0.951530000000     0.818450000000     0.0426095  
H212     H      0.601840000000     0.093770000000     0.700800000000     0.0415407  
H213     H      0.575150000000     0.094280000000     0.815080000000     0.0405938  
H214     H      0.531380000000     0.069710000000     0.755750000000     0.0425448  
H215     H      0.529970000000     0.950650000000     0.701430000000     0.0400566  
H216     H      0.484480000000     0.973700000000     0.760000000000     0.042691   
H217     H      0.493670000000     0.971850000000     0.257990000000     0.0423835  
H218     H      0.543230000000     0.067190000000     0.252330000000     0.0419723  
H219     H      0.496900000000     0.093290000000     0.200770000000     0.0411126  
H220     H      0.450780000000     0.950710000000     0.318080000000     0.0424527  
H221     H      0.424840000000     0.950140000000     0.201900000000     0.0398928  
H222     H      0.411040000000     0.980300000000     0.259860000000     0.0367501  
H223     H      0.526400000000     0.093410000000     0.312970000000     0.0403443  
H224     H      0.454240000000     0.064180000000     0.260970000000     0.0383658  
H225     H      0.648070000000     0.122040000000     0.181570000000     0.0390854  
H226     H      0.648530000000     0.046930000000     0.176330000000     0.0398345  
H227     H      0.624370000000     0.015490000000     0.067740000000     0.0432088  
H228     H      0.695020000000     0.171450000000     0.150420000000     0.0426637  
H229     H      0.632020000000     0.143690000000     0.074760000000     0.0421982  
H230     H      0.677540000000     0.141600000000     0.037850000000     0.0404004  
H231     H      0.693650000000     0.046430000000     0.135670000000     0.0434582  
H232     H      0.671480000000     0.061300000000     0.030290000000     0.0402476  
H233     H      0.199390000000     0.824820000000     0.581000000000     0.0416905  
H234     H      0.150230000000     0.873430000000     0.588720000000     0.043003   
H235     H      0.192300000000     0.939020000000     0.658570000000     0.041939   
H236     H      0.248750000000     0.855080000000     0.534220000000     0.042429   
H237     H      0.258440000000     0.862830000000     0.658570000000     0.0409026  
H238     H      0.280950000000     0.913900000000     0.613110000000     0.0365784  
H239     H      0.175620000000     0.922940000000     0.539130000000     0.0402572  
H240     H      0.240860000000     0.956760000000     0.609220000000     0.0383802  
H241     H      0.104410000000     0.744510000000     0.079960000000     0.0381138  
H242     H      0.063200000000     0.786390000000     0.079270000000     0.0371371  
H243     H      0.100810000000     0.851570000000     0.147490000000     0.0424513  
H244     H      0.149650000000     0.760310000000     0.024210000000     0.0419048  
H245     H      0.173920000000     0.783130000000     0.140380000000     0.0403242  
H246     H      0.195000000000     0.829800000000     0.085110000000     0.0424471  
H247     H      0.081130000000     0.834170000000     0.027180000000     0.0405494  
H248     H      0.146690000000     0.877190000000     0.092750000000     0.0417931  
H249     H      0.345050000000     0.912340000000     0.874740000000     0.0416792  
H250     H      0.350230000000     0.993320000000     0.873240000000     0.0402915  
H251     H      0.284810000000     0.981300000000     0.929970000000     0.0422498  
H252     H      0.367800000000     0.899670000000     0.944690000000     0.0431022  
H253     H      0.287700000000     0.858950000000     0.951670000000     0.0415223  
H254     H      0.310500000000     0.899940000000     0.015560000000     0.0393254  
H255     H      0.368340000000     0.024580000000     0.948170000000     0.0445945  
H256     H      0.303560000000     0.970790000000     0.006470000000     0.039989   
H257     H      0.775550000000     0.712840000000     0.922370000000     0.0359225  
H258     H      0.732770000000     0.629020000000     0.919130000000     0.0385444  
H259     H      0.764900000000     0.596370000000     0.847090000000     0.0397079  
H260     H      0.827040000000     0.740910000000     0.965260000000     0.0406868  
H261     H      0.830980000000     0.737740000000     0.839960000000     0.0425458  
H262     H      0.862690000000     0.719310000000     0.884750000000     0.0417267  
H263     H      0.751260000000     0.597930000000     0.967520000000     0.0414363  
H264     H      0.814560000000     0.620140000000     0.894920000000     0.0435607  
H265     H      0.948010000000     0.703350000000     0.381890000000     0.0378022  
H266     H      0.905570000000     0.619550000000     0.380280000000     0.0367818  
H267     H      0.847610000000     0.594520000000     0.459020000000     0.0426079  
H268     H      0.930200000000     0.733870000000     0.330860000000     0.0419889  
H269     H      0.914190000000     0.736120000000     0.450340000000     0.0398764  
H270     H      0.865450000000     0.711760000000     0.400370000000     0.0433103  
H271     H      0.855130000000     0.590880000000     0.334800000000     0.0405987  
H272     H      0.817560000000     0.613410000000     0.410900000000     0.0417824  
H273     H      0.646980000000     0.534760000000     0.647450000000     0.0392055  
H274     H      0.644610000000     0.609960000000     0.645600000000     0.0402188  
H275     H      0.709100000000     0.665490000000     0.587390000000     0.0431708  
H276     H      0.627770000000     0.499770000000     0.576250000000     0.0423001  
H277     H      0.708880000000     0.540970000000     0.583760000000     0.0425747  
H278     H      0.689700000000     0.555550000000     0.511510000000     0.0397954  
H279     H      0.626880000000     0.623740000000     0.570840000000     0.0428961  
H280     H      0.691560000000     0.634090000000     0.512440000000     0.0403948  
H281     H      0.040690000000     0.728830000000     0.668180000000     0.0396083  
H282     H      0.033380000000     0.800250000000     0.660370000000     0.0392893  
H283     H      0.967470000000     0.792410000000     0.714490000000     0.0429672  
H284     H      0.052810000000     0.714500000000     0.747220000000     0.0427214  
H285     H      0.972200000000     0.670570000000     0.712530000000     0.0427219  
H286     H      0.982200000000     0.697850000000     0.790670000000     0.0408691  
H287     H      0.047180000000     0.835590000000     0.731010000000     0.0420227  
H288     H      0.982770000000     0.777340000000     0.790070000000     0.0408127  
N1       N      0.789230000000     0.078080000000     0.759420000000    -0.166328   
N2       N      0.741760000000     0.985250000000     0.752430000000    -0.166308   
N3       N      0.924120000000     0.327640000000     0.616210000000    -0.16663    
N4       N      0.947110000000     0.377200000000     0.501210000000    -0.166922   
N5       N      0.102030000000     0.724620000000     0.393240000000    -0.166353   
N6       N      0.055990000000     0.631950000000     0.381730000000    -0.166261   
N7       N      0.632170000000     0.738370000000     0.907110000000    -0.165559   
N8       N      0.588740000000     0.645580000000     0.925130000000    -0.165424   
N9       N      0.288530000000     0.047970000000     0.192610000000    -0.166033   
N10      N      0.250470000000     0.982260000000     0.288940000000    -0.166392   
N11      N      0.412740000000     0.300660000000     0.058300000000    -0.165853   
N12      N      0.459110000000     0.393860000000     0.063630000000    -0.16579    
N13      N      0.684370000000     0.800640000000     0.510090000000    -0.166378   
N14      N      0.683630000000     0.820200000000     0.642780000000    -0.165223   
N15      N      0.687250000000     0.881590000000     0.139100000000    -0.165861   
N16      N      0.690420000000     0.908750000000     0.009800000000    -0.166738   
N17      N      0.779980000000     0.721440000000     0.243040000000    -0.166329   
N18      N      0.737370000000     0.770860000000     0.256880000000    -0.165963   
N19      N      0.631780000000     0.916950000000     0.385360000000    -0.165597   
N20      N      0.595960000000     0.960040000000     0.458390000000    -0.165523   
N21      N      0.995910000000     0.545970000000     0.765860000000    -0.165939   
N22      N      0.999200000000     0.532210000000     0.631350000000    -0.164652   
N23      N      0.001510000000     0.471960000000     0.250310000000    -0.165732   
N24      N      0.002500000000     0.447020000000     0.120710000000    -0.166823   
N25      N      0.902570000000     0.609450000000     0.055510000000    -0.166019   
N26      N      0.946390000000     0.561940000000     0.032370000000    -0.16606    
N27      N      0.349860000000     0.129710000000     0.941830000000    -0.166723   
N28      N      0.352120000000     0.152650000000     0.810250000000    -0.165374   
N29      N      0.350760000000     0.212790000000     0.310880000000    -0.165297   
N30      N      0.348690000000     0.234710000000     0.442010000000    -0.166558   
N31      N      0.413820000000     0.128880000000     0.555610000000    -0.165567   
N32      N      0.461460000000     0.083620000000     0.561220000000    -0.165367   
N33      N      0.100950000000     0.385890000000     0.887210000000    -0.166067   
N34      N      0.053200000000     0.428720000000     0.860750000000    -0.166378   
N35      N      0.288810000000     0.252920000000     0.699370000000    -0.165582   
N36      N      0.252280000000     0.278230000000     0.800850000000    -0.166009   
N37      N      0.486730000000     0.480630000000     0.811090000000    -0.165282   
N38      N      0.457980000000     0.452170000000     0.683250000000    -0.166517   
N39      N      0.538830000000     0.533010000000     0.312910000000    -0.164947   
N40      N      0.563360000000     0.560600000000     0.183170000000    -0.166064   
N41      N      0.895590000000     0.245190000000     0.875690000000    -0.167468   
N42      N      0.857650000000     0.207440000000     0.995160000000    -0.166512   
N43      N      0.821940000000     0.165700000000     0.504250000000    -0.166186   
N44      N      0.797270000000     0.142200000000     0.374300000000    -0.167137   
N45      N      0.150040000000     0.330280000000     0.656700000000    -0.166775   
N46      N      0.116680000000     0.329240000000     0.533230000000    -0.167564   
N47      N      0.199350000000     0.331840000000     0.042070000000    -0.165946   
N48      N      0.215270000000     0.332800000000     0.176000000000    -0.166785   
N49      N      0.040710000000     0.277550000000     0.282560000000    -0.165632   
N50      N      0.959220000000     0.240910000000     0.218090000000    -0.166325   
N51      N      0.376150000000     0.426630000000     0.428020000000    -0.166279   
N52      N      0.284580000000     0.382360000000     0.433940000000    -0.166719   
N53      N      0.533860000000     0.023010000000     0.820020000000    -0.166294   
N54      N      0.564360000000     0.022160000000     0.694850000000    -0.167226   
N55      N      0.462080000000     0.021600000000     0.194830000000    -0.167177   
N56      N      0.495270000000     0.021960000000     0.318740000000    -0.166118   
N57      N      0.624990000000     0.078240000000     0.064950000000    -0.166461   
N58      N      0.698490000000     0.110770000000     0.146570000000    -0.166417   
N59      N      0.223130000000     0.898680000000     0.665020000000    -0.166032   
N60      N      0.203800000000     0.880490000000     0.531670000000    -0.165116   
N61      N      0.144760000000     0.824740000000     0.148180000000    -0.165056   
N62      N      0.117020000000     0.799030000000     0.018800000000    -0.166057   
N63      N      0.281950000000     0.917890000000     0.938590000000    -0.16706    
N64      N      0.373480000000     0.965130000000     0.943480000000    -0.166306   
N65      N      0.806900000000     0.667090000000     0.838390000000    -0.164618   
N66      N      0.791130000000     0.669430000000     0.972700000000    -0.165719   
N67      N      0.872400000000     0.665380000000     0.459400000000    -0.164692   
N68      N      0.890760000000     0.662290000000     0.326380000000    -0.165904   
N69      N      0.714260000000     0.606020000000     0.583750000000    -0.165908   
N70      N      0.622380000000     0.559360000000     0.573730000000    -0.166171   
N71      N      0.963940000000     0.728070000000     0.716490000000    -0.165872   
N72      N      0.054520000000     0.777420000000     0.741010000000    -0.16614    
O1       O      0.778530000000     0.669300000000     0.611730000000    -0.398168   
O2       O      0.905200000000     0.729880000000     0.671670000000    -0.402838   
O3       O      0.861960000000     0.700640000000     0.547160000000    -0.394994   
O4       O      0.824250000000     0.699270000000     0.736260000000    -0.395791   
O5       O      0.816750000000     0.631980000000     0.750080000000    -0.395573   
O6       O      0.854920000000     0.633610000000     0.561610000000    -0.396522   
O7       O      0.900560000000     0.663990000000     0.686610000000    -0.39475    
O8       O      0.773430000000     0.603100000000     0.625360000000    -0.399626   
O9       O      0.102990000000     0.838720000000     0.799750000000    -0.40111    
O10      O      0.219270000000     0.912250000000     0.893750000000    -0.397246   
O11      O      0.189170000000     0.901210000000     0.759510000000    -0.398547   
O12      O      0.131510000000     0.848540000000     0.934660000000    -0.396415   
O13      O      0.147230000000     0.794110000000     0.921810000000    -0.39854    
O14      O      0.205120000000     0.846930000000     0.746930000000    -0.396976   
O15      O      0.232860000000     0.856340000000     0.881370000000    -0.403228   
O16      O      0.116900000000     0.783060000000     0.787080000000    -0.397156   
O17      O      0.438800000000     0.027940000000     0.970660000000    -0.395006   
O18      O      0.565830000000     0.084110000000     0.031130000000    -0.400405   
O19      O      0.522440000000     0.057520000000     0.907330000000    -0.399107   
O20      O      0.484200000000     0.055810000000     0.095110000000    -0.399814   
O21      O      0.474570000000     0.987570000000     0.107960000000    -0.400501   
O22      O      0.512550000000     0.989200000000     0.920170000000    -0.401795   
O23      O      0.558010000000     0.016620000000     0.043240000000    -0.400934   
O24      O      0.431780000000     0.960900000000     0.984230000000    -0.405964   
O25      O      0.230020000000     0.390080000000     0.385490000000    -0.402544   
O26      O      0.108020000000     0.338290000000     0.307370000000    -0.397217   
O27      O      0.145440000000     0.363880000000     0.435590000000    -0.401699   
O28      O      0.195540000000     0.365820000000     0.256120000000    -0.399479   
O29      O      0.182910000000     0.296690000000     0.271500000000    -0.400532   
O30      O      0.132590000000     0.294640000000     0.450910000000    -0.400437   
O31      O      0.097600000000     0.269990000000     0.322290000000    -0.401747   
O32      O      0.219490000000     0.321770000000     0.400940000000    -0.397949   
O33      O      0.893060000000     0.239640000000     0.212370000000    -0.397122   
O34      O      0.762490000000     0.174240000000     0.172400000000    -0.40241    
O35      O      0.812200000000     0.190180000000     0.288450000000    -0.399587   
O36      O      0.840400000000     0.222000000000     0.096810000000    -0.400494   
O37      O      0.844300000000     0.160320000000     0.081670000000    -0.399998   
O38      O      0.816440000000     0.128650000000     0.273490000000    -0.399985   
O39      O      0.764030000000     0.111360000000     0.157480000000    -0.397812   
O40      O      0.894570000000     0.176760000000     0.197280000000    -0.402061   
O41      O      0.434180000000     0.489090000000     0.471480000000    -0.403176   
O42      O      0.558520000000     0.557160000000     0.541650000000    -0.398007   
O43      O      0.517300000000     0.543760000000     0.414100000000    -0.39833    
O44      O      0.472780000000     0.501040000000     0.598440000000    -0.398051   
O45      O      0.482380000000     0.442680000000     0.583760000000    -0.397358   
O46      O      0.526250000000     0.485080000000     0.398650000000    -0.395407   
O47      O      0.565640000000     0.497420000000     0.526280000000    -0.400552   
O48      O      0.440700000000     0.428940000000     0.456840000000    -0.395606   
O49      O      0.108540000000     0.323960000000     0.873720000000    -0.394443   
O50      O      0.185980000000     0.270630000000     0.831570000000    -0.39898    
O51      O      0.160490000000     0.296440000000     0.949800000000    -0.400453   
O52      O      0.134540000000     0.296590000000     0.757020000000    -0.402843   
O53      O      0.191930000000     0.365310000000     0.747190000000    -0.399151   
O54      O      0.217620000000     0.365410000000     0.941120000000    -0.399074   
O55      O      0.244320000000     0.338770000000     0.823280000000    -0.398419   
O56      O      0.167290000000     0.391690000000     0.864120000000    -0.403766   
O57      O      0.350380000000     0.129490000000     0.582270000000    -0.39636    
O58      O      0.288050000000     0.192930000000     0.651360000000    -0.401189   
O59      O      0.317030000000     0.183520000000     0.524710000000    -0.397336   
O60      O      0.320160000000     0.140900000000     0.708830000000    -0.398635   
O61      O      0.386180000000     0.200810000000     0.724870000000    -0.397214   
O62      O      0.382820000000     0.243690000000     0.541010000000    -0.398004   
O63      O      0.352680000000     0.254240000000     0.668490000000    -0.394054   
O64      O      0.415220000000     0.190860000000     0.597880000000    -0.398206   
O65      O      0.992260000000     0.432430000000     0.893250000000    -0.394652   
O66      O      0.939400000000     0.501020000000     0.977790000000    -0.400172   
O67      O      0.963360000000     0.492850000000     0.846170000000    -0.396195   
O68      O      0.967360000000     0.442310000000     0.023990000000    -0.39836    
O69      O      0.035500000000     0.498970000000     0.039310000000    -0.398321   
O70      O      0.031060000000     0.550020000000     0.862360000000    -0.399581   
O71      O      0.006520000000     0.559040000000     0.994090000000    -0.397967   
O72      O      0.059160000000     0.491150000000     0.908150000000    -0.40273    
O73      O      0.624950000000     0.851090000000     0.350140000000    -0.400806   
O74      O      0.677090000000     0.776670000000     0.286020000000    -0.396566   
O75      O      0.650240000000     0.793520000000     0.411520000000    -0.398683   
O76      O      0.651110000000     0.835090000000     0.225310000000    -0.397991   
O77      O      0.719330000000     0.891700000000     0.240090000000    -0.399771   
O78      O      0.718400000000     0.850250000000     0.426210000000    -0.397931   
O79      O      0.744360000000     0.834730000000     0.300950000000    -0.401552   
O80      O      0.692200000000     0.909280000000     0.364450000000    -0.395755   
O81      O      0.780190000000     0.659670000000     0.202470000000    -0.396283   
O82      O      0.843980000000     0.603910000000     0.112700000000    -0.400827   
O83      O      0.838730000000     0.628760000000     0.245580000000    -0.395113   
O84      O      0.786920000000     0.634050000000     0.069640000000    -0.396869   
O85      O      0.843640000000     0.702370000000     0.052980000000    -0.39553    
O86      O      0.895560000000     0.696980000000     0.228620000000    -0.39739    
O87      O      0.902130000000     0.671200000000     0.095710000000    -0.396433   
O88      O      0.838500000000     0.726940000000     0.185870000000    -0.401351   
O89      O      0.532620000000     0.958830000000     0.488300000000    -0.402437   
O90      O      0.464840000000     0.020100000000     0.541100000000    -0.397321   
O91      O      0.482130000000     0.989050000000     0.419810000000    -0.400394   
O92      O      0.517130000000     0.988950000000     0.608920000000    -0.400142   
O93      O      0.576250000000     0.056160000000     0.595010000000    -0.399751   
O94      O      0.541400000000     0.056070000000     0.405680000000    -0.398457   
O95      O      0.525100000000     0.086280000000     0.527220000000    -0.397471   
O96      O      0.593330000000     0.024610000000     0.474300000000    -0.393575   
O97      O      0.352540000000     0.112610000000     0.166630000000    -0.394671   
O98      O      0.414610000000     0.240150000000     0.099790000000    -0.398955   
O99      O      0.385050000000     0.199310000000     0.225650000000    -0.397553   
O100     O      0.383530000000     0.155350000000     0.040980000000    -0.39883    
O101     O      0.317570000000     0.148450000000     0.024110000000    -0.397284   
O102     O      0.318930000000     0.192110000000     0.209280000000    -0.398007   
O103     O      0.349580000000     0.235390000000     0.083610000000    -0.397839   
O104     O      0.287840000000     0.108330000000     0.149180000000    -0.403068   
O105     O      0.521540000000     0.453760000000     0.023000000000    -0.398951   
O106     O      0.588010000000     0.581310000000     0.956450000000    -0.394081   
O107     O      0.574210000000     0.537820000000     0.083000000000    -0.397036   
O108     O      0.534280000000     0.494890000000     0.896940000000    -0.396287   
O109     O      0.475600000000     0.502860000000     0.911620000000    -0.398128   
O110     O      0.515660000000     0.546060000000     0.097490000000    -0.396595   
O111     O      0.527940000000     0.586780000000     0.970980000000    -0.400538   
O112     O      0.461710000000     0.459670000000     0.037440000000    -0.396845   
O113     O      0.166520000000     0.783960000000     0.358500000000    -0.404181   
O114     O      0.242470000000     0.913540000000     0.310040000000    -0.399207   
O115     O      0.219010000000     0.862730000000     0.430230000000    -0.396641   
O116     O      0.187880000000     0.832360000000     0.237710000000    -0.39543    
O117     O      0.130890000000     0.843430000000     0.249620000000    -0.39784    
O118     O      0.162230000000     0.874250000000     0.441220000000    -0.397148   
O119     O      0.184430000000     0.922960000000     0.320520000000    -0.399634   
O120     O      0.108100000000     0.792610000000     0.370350000000    -0.394923   
O121     O      0.007760000000     0.443890000000     0.473560000000    -0.399567   
O122     O      0.061340000000     0.572640000000     0.418590000000    -0.40359    
O123     O      0.035170000000     0.526350000000     0.541340000000    -0.397567   
O124     O      0.034640000000     0.492010000000     0.351070000000    -0.398965   
O125     O      0.967000000000     0.481730000000     0.338970000000    -0.3968     
O126     O      0.967370000000     0.515690000000     0.529420000000    -0.397404   
O127     O      0.994670000000     0.564770000000     0.406780000000    -0.395439   
O128     O      0.940890000000     0.435460000000     0.461420000000    -0.402151   
O129     O      0.921770000000     0.263150000000     0.649850000000    -0.397993   
O130     O      0.852350000000     0.136790000000     0.718560000000    -0.401945   
O131     O      0.867200000000     0.177110000000     0.591820000000    -0.399797   
O132     O      0.906360000000     0.221120000000     0.776900000000    -0.401349   
O133     O      0.848570000000     0.230910000000     0.789550000000    -0.400305   
O134     O      0.809400000000     0.186850000000     0.604470000000    -0.400946   
O135     O      0.793330000000     0.144310000000     0.731300000000    -0.398169   
O136     O      0.862670000000     0.270520000000     0.662960000000    -0.40367    
O137     O      0.692580000000     0.803220000000     0.872370000000    -0.397461   
O138     O      0.746850000000     0.927660000000     0.797350000000    -0.402745   
O139     O      0.722500000000     0.890950000000     0.925980000000    -0.397803   
O140     O      0.717410000000     0.842690000000     0.742920000000    -0.398322   
O141     O      0.649930000000     0.832660000000     0.729880000000    -0.398147   
O142     O      0.654870000000     0.880490000000     0.912640000000    -0.40042    
O143     O      0.680350000000     0.920050000000     0.784400000000    -0.395035   
O144     O      0.625780000000     0.794750000000     0.859110000000    -0.398405   


