data_structure

_audit_creation_method RASPA-1.0
_audit_creation_date 2023-6-5
_audit_author_name 'Poobodin Mano'

_cell_length_a    35.107
_cell_length_b    34.7356
_cell_length_c    20.5093
_cell_angle_alpha 89.9802
_cell_angle_beta  90.0199
_cell_angle_gamma 119.983
_cell_volume      21663.3

_symmetry_cell_setting          triclinic
_symmetry_space_group_name_Hall 'P 1'
_symmetry_space_group_name_H-M  'P 1'
_symmetry_Int_Tables_number     1

_symmetry_equiv_pos_as_xyz 'x,y,z'

loop_
_atom_site_label
_atom_site_type_symbol
_atom_site_fract_x
_atom_site_fract_y
_atom_site_fract_z
_atom_site_charge
Br1      Br     0.786640000000     0.107820000000     0.867400000000    -0.353537   
Br2      Br     0.843220000000     0.367560000000     0.514270000000    -0.201181   
Br3      Br     0.013380000000     0.714730000000     0.296960000000    -0.226929   
Br4      Br     0.600120000000     0.603910000000     0.795000000000    -0.223162   
Br5      Br     0.273770000000     0.094290000000     0.340090000000    -0.347257   
Br6      Br     0.516710000000     0.416080000000     0.106810000000    -0.232675   
Br7      Br     0.691890000000     0.934730000000     0.642460000000    -0.240102   
Br8      Br     0.592660000000     0.803170000000     0.027720000000    -0.22664    
Br9      Br     0.905600000000     0.839920000000     0.233110000000    -0.182682   
Br10     Br     0.676230000000     0.057010000000     0.427630000000    -0.221287   
Br11     Br     0.894740000000     0.515590000000     0.654240000000    -0.206036   
Br12     Br     0.950460000000     0.372310000000     0.192930000000    -0.220534   
Br13     Br     0.882960000000     0.487820000000     0.097640000000    -0.223767   
Br14     Br     0.423760000000     0.127560000000     0.852640000000    -0.21492    
Br15     Br     0.427010000000     0.219710000000     0.512860000000    -0.175763   
Br16     Br     0.453520000000     0.172640000000     0.550510000000    -0.172563   
Br17     Br     0.077600000000     0.344420000000     0.949280000000    -0.288871   
Br18     Br     0.295790000000     0.325350000000     0.830010000000    -0.213841   
Br19     Br     0.394020000000     0.512540000000     0.789950000000    -0.22449    
Br20     Br     0.506850000000     0.619630000000     0.135240000000    -0.224466   
Br21     Br     0.921450000000     0.282890000000     0.031220000000    -0.217021   
Br22     Br     0.856620000000     0.216710000000     0.442560000000    -0.213261   
Br23     Br     0.071360000000     0.235020000000     0.431920000000    -0.227088   
Br24     Br     0.198300000000     0.256500000000     0.959400000000    -0.218044   
Br25     Br     0.065890000000     0.220630000000     0.133010000000    -0.217561   
Br26     Br     0.307790000000     0.330760000000     0.295510000000    -0.22813    
Br27     Br     0.609350000000     0.104330000000     0.847720000000    -0.212358   
Br28     Br     0.538730000000     0.110900000000     0.196500000000    -0.17495    
Br29     Br     0.605470000000     0.139120000000     0.137530000000    -0.169462   
Br30     Br     0.257020000000     0.978030000000     0.574560000000    -0.233995   
Br31     Br     0.064080000000     0.834890000000     0.959800000000    -0.231735   
Br32     Br     0.312890000000     0.000730000000     0.827900000000    -0.217135   
Br33     Br     0.768900000000     0.713680000000     0.919870000000    -0.222713   
Br34     Br     0.891220000000     0.787960000000     0.323710000000    -0.251926   
Br35     Br     0.699610000000     0.703600000000     0.645130000000    -0.233198   
Br36     Br     0.966450000000     0.665590000000     0.648960000000    -0.223786   
C1       C      0.917890000000     0.720520000000     0.687120000000     0.406737   
C2       C      0.746070000000     0.641950000000     0.632350000000     0.411619   
C3       C      0.814790000000     0.674810000000     0.786320000000     0.412581   
C4       C      0.850710000000     0.688030000000     0.533380000000     0.404479   
C5       C      0.095480000000     0.810350000000     0.755700000000     0.400134   
C6       C      0.261130000000     0.893700000000     0.843810000000     0.407685   
C7       C      0.205340000000     0.877370000000     0.679560000000     0.408116   
C8       C      0.147580000000     0.826360000000     0.921450000000     0.412228   
C9       C      0.418260000000     0.972680000000     0.975000000000     0.395523   
C10      C      0.584230000000     0.050910000000     0.060240000000     0.411355   
C11      C      0.528670000000     0.012190000000     0.893440000000     0.407622   
C12      C      0.480010000000     0.011630000000     0.140670000000     0.404193   
C13      C      0.093040000000     0.309740000000     0.218930000000     0.413207   
C14      C      0.255270000000     0.383910000000     0.315270000000     0.410037   
C15      C      0.199500000000     0.356970000000     0.145040000000     0.401294   
C16      C      0.143430000000     0.334780000000     0.390760000000     0.411357   
C17      C      0.744080000000     0.125170000000     0.178520000000     0.403998   
C18      C      0.918510000000     0.216180000000     0.195360000000     0.40827    
C19      C      0.834930000000     0.197350000000     0.064640000000     0.422628   
C20      C      0.831800000000     0.147360000000     0.309710000000     0.412036   
C21      C      0.589790000000     0.566130000000     0.505780000000     0.399918   
C22      C      0.423320000000     0.472440000000     0.425550000000     0.398449   
C23      C      0.481880000000     0.498060000000     0.591800000000     0.397891   
C24      C      0.527760000000     0.539170000000     0.342100000000     0.396104   
C25      C      0.104610000000     0.353230000000     0.798420000000     0.414188   
C26      C      0.197590000000     0.271780000000     0.770160000000     0.418126   
C27      C      0.152340000000     0.306560000000     0.910400000000     0.425961   
C28      C      0.148070000000     0.318240000000     0.651860000000     0.398656   
C29      C      0.286620000000     0.181440000000     0.731220000000     0.401999   
C30      C      0.370510000000     0.102690000000     0.633800000000     0.418845   
C31      C      0.331280000000     0.113270000000     0.802120000000     0.422648   
C32      C      0.328320000000     0.169000000000     0.562150000000     0.413638   
C33      C      0.033240000000     0.445250000000     0.923170000000     0.401889   
C34      C      0.970140000000     0.546030000000     0.013120000000     0.412459   
C35      C      0.997990000000     0.519750000000     0.844700000000     0.398538   
C36      C      0.001740000000     0.471600000000     0.090490000000     0.408104   
C37      C      0.672170000000     0.905240000000     0.385150000000     0.399095   
C38      C      0.760480000000     0.824080000000     0.316160000000     0.399996   
C39      C      0.731360000000     0.859170000000     0.475680000000     0.406558   
C40      C      0.702130000000     0.869000000000     0.224730000000     0.400956   
C41      C      0.838430000000     0.735880000000     0.198390000000     0.424068   
C42      C      0.920920000000     0.647240000000     0.145280000000     0.407644   
C43      C      0.903660000000     0.706690000000     0.291750000000     0.425383   
C44      C      0.850520000000     0.680940000000     0.046560000000     0.406466   
C45      C      0.574130000000     0.982000000000     0.461790000000     0.409738   
C46      C      0.477670000000     0.041330000000     0.578410000000     0.403408   
C47      C      0.492210000000     0.015430000000     0.403830000000     0.396943   
C48      C      0.555580000000     0.008480000000     0.637900000000     0.400819   
C49      C      0.317860000000     0.098460000000     0.205150000000     0.416865   
C50      C      0.373550000000     0.265690000000     0.136940000000     0.404184   
C51      C      0.345300000000     0.196360000000     0.292690000000     0.408015   
C52      C      0.341350000000     0.159500000000     0.041690000000     0.403415   
C53      C      0.449250000000     0.429290000000     0.020710000000     0.412009   
C54      C      0.531660000000     0.589640000000     0.910600000000     0.411182   
C55      C      0.525760000000     0.543930000000     0.080940000000     0.413424   
C56      C      0.457020000000     0.476810000000     0.847480000000     0.412487   
C57      C      0.210310000000     0.930370000000     0.252430000000     0.400711   
C58      C      0.114630000000     0.763760000000     0.337210000000     0.410711   
C59      C      0.132000000000     0.817290000000     0.175300000000     0.405091   
C60      C      0.191440000000     0.873930000000     0.414670000000     0.402242   
C61      C      0.027260000000     0.589140000000     0.422470000000     0.400815   
C62      C      0.950410000000     0.427030000000     0.528140000000     0.409772   
C63      C      0.989040000000     0.476380000000     0.357300000000     0.39983    
C64      C      0.990550000000     0.541790000000     0.593350000000     0.412634   
C65      C      0.884290000000     0.256460000000     0.627430000000     0.404384   
C66      C      0.836050000000     0.102490000000     0.744560000000     0.418702   
C67      C      0.857930000000     0.144720000000     0.566840000000     0.408426   
C68      C      0.856370000000     0.206470000000     0.802560000000     0.403791   
C69      C      0.624390000000     0.764300000000     0.838560000000     0.405737   
C70      C      0.731850000000     0.937950000000     0.810550000000     0.407877   
C71      C      0.683250000000     0.860650000000     0.956480000000     0.41775    
C72      C      0.671790000000     0.843450000000     0.699890000000     0.419946   
C73      C      0.798850000000     0.993140000000     0.753620000000    -0.0161591  
C74      C      0.749020000000     0.016370000000     0.812050000000    -0.0557959  
C75      C      0.839230000000     0.036270000000     0.776170000000    -0.00794287 
C76      C      0.791000000000     0.056650000000     0.837130000000     0.139461   
C77      C      0.945150000000     0.324400000000     0.578850000000    -0.0133116  
C78      C      0.867480000000     0.307220000000     0.564090000000    -0.0463408  
C79      C      0.959380000000     0.372620000000     0.592830000000    -0.0100728  
C80      C      0.882800000000     0.357310000000     0.569850000000     0.111959   
C81      C      0.094050000000     0.652640000000     0.376570000000    -0.0116852  
C82      C      0.020640000000     0.646220000000     0.358950000000    -0.0420086  
C83      C      0.113900000000     0.701400000000     0.393130000000    -0.0104237  
C84      C      0.041640000000     0.697310000000     0.364280000000     0.10826    
C85      C      0.549860000000     0.698050000000     0.842430000000    -0.00912117 
C86      C      0.614050000000     0.690540000000     0.812390000000    -0.0438354  
C87      C      0.533650000000     0.659970000000     0.891120000000    -0.010969   
C88      C      0.596990000000     0.647550000000     0.852340000000     0.113705   
C89      C      0.272560000000     0.987050000000     0.187200000000    -0.0159615  
C90      C      0.228870000000     0.008930000000     0.263090000000    -0.0555055  
C91      C      0.315460000000     0.026830000000     0.212330000000    -0.00895447 
C92      C      0.272810000000     0.044880000000     0.290950000000     0.135523   
C93      C      0.361680000000     0.328880000000     0.108880000000    -0.0140835  
C94      C      0.435720000000     0.342550000000     0.139580000000    -0.0436193  
C95      C      0.381480000000     0.361160000000     0.051000000000    -0.0116689  
C96      C      0.457030000000     0.371220000000     0.079590000000     0.11345    
C97      C      0.715320000000     0.816120000000     0.576800000000    -0.0114549  
C98      C      0.738130000000     0.896630000000     0.578200000000    -0.0457241  
C99      C      0.669380000000     0.804040000000     0.600960000000    -0.00584584 
C100     C      0.691150000000     0.884800000000     0.597200000000     0.111204   
C101     C      0.736630000000     0.884520000000     0.117060000000    -0.0140236  
C102     C      0.654480000000     0.835620000000     0.129890000000    -0.0445457  
C103     C      0.729340000000     0.898660000000     0.049990000000    -0.00883248 
C104     C      0.647350000000     0.851810000000     0.064140000000     0.114551   
C105     C      0.755870000000     0.764800000000     0.247770000000    -0.0161166  
C106     C      0.830050000000     0.828430000000     0.283760000000    -0.0591241  
C107     C      0.774740000000     0.734130000000     0.246690000000    -0.00703359 
C108     C      0.850120000000     0.797580000000     0.272440000000     0.163468   
C109     C      0.604860000000     0.899070000000     0.433220000000    -0.0146155  
C110     C      0.672600000000     0.973940000000     0.419370000000    -0.0456597  
C111     C      0.576790000000     0.918900000000     0.411840000000    -0.00999075 
C112     C      0.643370000000     0.994120000000     0.402770000000     0.112407   
C113     C      0.037350000000     0.556660000000     0.743590000000    -0.0147757  
C114     C      0.953390000000     0.511000000000     0.747100000000    -0.0462426  
C115     C      0.033150000000     0.584610000000     0.689190000000    -0.00865733 
C116     C      0.952350000000     0.543020000000     0.696650000000     0.113967   
C117     C      0.031440000000     0.468390000000     0.266910000000    -0.0147684  
C118     C      0.951490000000     0.448020000000     0.252530000000    -0.0414128  
C119     C      0.038650000000     0.487060000000     0.197280000000    -0.00218325 
C120     C      0.956760000000     0.430960000000     0.185900000000     0.114356   
C121     C      0.984890000000     0.643320000000     0.101010000000    -0.0112407  
C122     C      0.919590000000     0.575420000000     0.143530000000    -0.0425281  
C123     C      0.980050000000     0.620160000000     0.035430000000    -0.0118412  
C124     C      0.912240000000     0.551660000000     0.077950000000     0.111199   
C125     C      0.296150000000     0.124190000000     0.943490000000    -0.0156311  
C126     C      0.379360000000     0.157370000000     0.941300000000    -0.0504172  
C127     C      0.291570000000     0.084510000000     0.904050000000    -0.00948201 
C128     C      0.372050000000     0.116480000000     0.903220000000     0.120959   
C129     C      0.301490000000     0.155270000000     0.386790000000    -0.0801094  
C130     C      0.381500000000     0.208170000000     0.397780000000    -0.0408738  
C131     C      0.291910000000     0.161420000000     0.457000000000     0.0127202  
C132     C      0.374990000000     0.215780000000     0.469950000000     0.106273   
C133     C      0.410440000000     0.027590000000     0.638590000000    -0.0140796  
C134     C      0.469030000000     0.105220000000     0.609540000000    -0.0484415  
C135     C      0.375470000000     0.036060000000     0.607060000000    -0.0119827  
C136     C      0.435220000000     0.110730000000     0.570790000000     0.113068   
C137     C      0.095990000000     0.443120000000     0.873570000000    -0.013032   
C138     C      0.021570000000     0.372690000000     0.885810000000    -0.0449325  
C139     C      0.099530000000     0.421140000000     0.811110000000    -0.0037964  
C140     C      0.048080000000     0.349300000000     0.870960000000     0.122085   
C141     C      0.217230000000     0.176880000000     0.767250000000    -0.0129329  
C142     C      0.288640000000     0.244510000000     0.790950000000    -0.0437736  
C143     C      0.198950000000     0.204660000000     0.738810000000    -0.00801887 
C144     C      0.270530000000     0.274790000000     0.769370000000     0.114243   
C145     C      0.486420000000     0.462080000000     0.693110000000    -0.0163568  
C146     C      0.451710000000     0.511220000000     0.692740000000    -0.0465939  
C147     C      0.455150000000     0.435190000000     0.748750000000    -0.00714096 
C148     C      0.419230000000     0.480770000000     0.744960000000     0.114771   
C149     C      0.547680000000     0.520510000000     0.236210000000    -0.014315   
C150     C      0.512590000000     0.569350000000     0.243230000000    -0.0482953  
C151     C      0.571160000000     0.545410000000     0.173740000000    -0.0101935  
C152     C      0.536250000000     0.591850000000     0.179830000000     0.11564    
C153     C      0.809770000000     0.172260000000     0.897920000000    -0.0846578  
C154     C      0.887400000000     0.236280000000     0.911040000000    -0.0441964  
C155     C      0.795510000000     0.182730000000     0.962010000000     0.0176773  
C156     C      0.871460000000     0.249640000000     0.972500000000     0.113131   
C157     C      0.817230000000     0.096990000000     0.473420000000    -0.0150208  
C158     C      0.895020000000     0.161610000000     0.461440000000    -0.0425818  
C159     C      0.821470000000     0.095470000000     0.398830000000    -0.00119911 
C160     C      0.877050000000     0.178300000000     0.406750000000     0.117176   
C161     C      0.174210000000     0.363900000000     0.551930000000    -0.0145792  
C162     C      0.124070000000     0.280510000000     0.544700000000    -0.0480187  
C163     C      0.147890000000     0.369590000000     0.496960000000    -0.0103525  
C164     C      0.100200000000     0.287760000000     0.487470000000     0.115348   
C165     C      0.178290000000     0.373060000000     0.038930000000    -0.00308005 
C166     C      0.217940000000     0.329980000000     0.044700000000    -0.0421075  
C167     C      0.137230000000     0.331630000000     0.012910000000    -0.0368494  
C168     C      0.178380000000     0.289810000000     0.012620000000     0.110909   
C169     C      0.985680000000     0.283730000000     0.232340000000    -0.0134617  
C170     C      0.989500000000     0.216960000000     0.191850000000    -0.0456132  
C171     C      0.026830000000     0.313960000000     0.192870000000    -0.00962124 
C172     C      0.030920000000     0.248650000000     0.153790000000     0.114131   
C173     C      0.361220000000     0.474850000000     0.374400000000    -0.0130004  
C174     C      0.369010000000     0.407240000000     0.363600000000    -0.0440235  
C175     C      0.311660000000     0.445550000000     0.378540000000    -0.0102423  
C176     C      0.318570000000     0.377470000000     0.359040000000     0.111592   
C177     C      0.550960000000     0.968060000000     0.740370000000    -0.0117107  
C178     C      0.595030000000     0.049990000000     0.737440000000    -0.0433726  
C179     C      0.522410000000     0.969180000000     0.795780000000    -0.011267   
C180     C      0.568000000000     0.054360000000     0.793390000000     0.110554   
C181     C      0.438850000000     0.979150000000     0.312570000000    -0.0143596  
C182     C      0.492510000000     0.059880000000     0.308520000000    -0.0440174  
C183     C      0.453750000000     0.972870000000     0.244700000000    -0.0113527  
C184     C      0.510080000000     0.054430000000     0.243170000000     0.105997   
C185     C      0.674870000000     0.054970000000     0.154470000000    -0.0111152  
C186     C      0.673010000000     0.124230000000     0.176900000000    -0.0413284  
C187     C      0.650910000000     0.048660000000     0.089880000000    -0.0118879  
C188     C      0.646260000000     0.118170000000     0.114230000000     0.105095   
C189     C      0.241160000000     0.881040000000     0.505050000000    -0.0144996  
C190     C      0.181920000000     0.902520000000     0.518690000000    -0.0412943  
C191     C      0.229980000000     0.863220000000     0.574910000000    -0.00153456 
C192     C      0.204520000000     0.920270000000     0.584510000000     0.114924   
C193     C      0.124250000000     0.767610000000     0.083390000000    -0.00965719 
C194     C      0.085830000000     0.810610000000     0.079930000000    -0.0424962  
C195     C      0.147650000000     0.786880000000     0.018900000000    -0.0100038  
C196     C      0.108590000000     0.833870000000     0.016220000000     0.112221   
C197     C      0.346850000000     0.904330000000     0.951960000000    -0.0154632  
C198     C      0.355950000000     0.979670000000     0.930250000000    -0.047677   
C199     C      0.324540000000     0.888390000000     0.885210000000    -0.0110624  
C200     C      0.335040000000     0.963400000000     0.862840000000     0.113345   
C201     C      0.797010000000     0.636150000000     0.961540000000    -0.0132541  
C202     C      0.852140000000     0.718720000000     0.945370000000    -0.0413793  
C203     C      0.799680000000     0.632040000000     0.887510000000    -0.0010289  
C204     C      0.821560000000     0.714080000000     0.889170000000     0.115524   
C205     C      0.871030000000     0.659820000000     0.436740000000    -0.0140464  
C206     C      0.859640000000     0.725600000000     0.427120000000    -0.0438062  
C207     C      0.914170000000     0.685410000000     0.399590000000    -0.00500369 
C208     C      0.901450000000     0.750210000000     0.385390000000     0.11054    
C209     C      0.659990000000     0.568420000000     0.530930000000    -0.0133156  
C210     C      0.653280000000     0.636370000000     0.547990000000    -0.0454459  
C211     C      0.678450000000     0.573480000000     0.599830000000    -0.0121816  
C212     C      0.673770000000     0.641870000000     0.616170000000     0.112991   
C213     C      0.031090000000     0.813980000000     0.714360000000    -0.0114419  
C214     C      0.035910000000     0.745410000000     0.698340000000    -0.0423996  
C215     C      0.982520000000     0.785990000000     0.731610000000    -0.0118946  
C216     C      0.985910000000     0.715930000000     0.709300000000     0.10982    
Cu1      Cu     0.834210000000     0.717740000000     0.658230000000     0.857783   
Cu2      Cu     0.829720000000     0.644660000000     0.661100000000     0.874072   
Cu3      Cu     0.175680000000     0.886160000000     0.808950000000     0.867659   
Cu4      Cu     0.180110000000     0.818090000000     0.793250000000     0.840593   
Cu5      Cu     0.505640000000     0.048160000000     0.007520000000     0.879353   
Cu6      Cu     0.497930000000     0.974330000000     0.024280000000     0.833809   
Cu7      Cu     0.175910000000     0.383160000000     0.267590000000     0.851454   
Cu8      Cu     0.171130000000     0.309980000000     0.269800000000     0.871785   
Cu9      Cu     0.830640000000     0.204470000000     0.205320000000     0.891189   
Cu10     Cu     0.832210000000     0.137480000000     0.168360000000     0.849338   
Cu11     Cu     0.501860000000     0.552190000000     0.472990000000     0.842951   
Cu12     Cu     0.510270000000     0.486110000000     0.461630000000     0.852089   
Cu13     Cu     0.116510000000     0.275950000000     0.780180000000     0.859639   
Cu14     Cu     0.184810000000     0.348950000000     0.782570000000     0.867974   
Cu15     Cu     0.292970000000     0.107690000000     0.673120000000     0.862898   
Cu16     Cu     0.364030000000     0.175720000000     0.693200000000     0.889397   
Cu17     Cu     0.963250000000     0.463940000000     0.961430000000     0.876901   
Cu18     Cu     0.038960000000     0.526930000000     0.972800000000     0.838009   
Cu19     Cu     0.682400000000     0.828500000000     0.353840000000     0.863864   
Cu20     Cu     0.750780000000     0.900980000000     0.347530000000     0.846216   
Cu21     Cu     0.845740000000     0.656470000000     0.183700000000     0.867024   
Cu22     Cu     0.912140000000     0.727030000000     0.153310000000     0.887      
Cu23     Cu     0.495070000000     0.972820000000     0.526670000000     0.833633   
Cu24     Cu     0.555370000000     0.049980000000     0.512770000000     0.873409   
Cu25     Cu     0.383120000000     0.188750000000     0.169350000000     0.87509    
Cu26     Cu     0.306300000000     0.173010000000     0.164060000000     0.864028   
Cu27     Cu     0.522010000000     0.504160000000     0.953020000000     0.8736     
Cu28     Cu     0.458790000000     0.514320000000     0.977120000000     0.860018   
Cu29     Cu     0.193390000000     0.840490000000     0.284340000000     0.84483    
Cu30     Cu     0.131350000000     0.853360000000     0.304350000000     0.867918   
Cu31     Cu     0.025760000000     0.512860000000     0.486040000000     0.84001    
Cu32     Cu     0.952650000000     0.503940000000     0.465190000000     0.872386   
Cu33     Cu     0.898030000000     0.189070000000     0.690850000000     0.851587   
Cu34     Cu     0.819870000000     0.167120000000     0.676780000000     0.87648    
Cu35     Cu     0.709380000000     0.845400000000     0.827190000000     0.8767     
Cu36     Cu     0.645900000000     0.857720000000     0.828700000000     0.859029   
H1       H      0.737290000000     0.025940000000     0.767920000000     0.0821106  
H2       H      0.791230000000     0.998210000000     0.702780000000     0.0544135  
H3       H      0.865590000000     0.047660000000     0.738650000000     0.0444296  
H4       H      0.723090000000     0.004920000000     0.850200000000     0.0705543  
H5       H      0.800710000000     0.045290000000     0.881660000000     0.0263053  
H6       H      0.807520000000     0.966460000000     0.751820000000     0.0504538  
H7       H      0.851560000000     0.029640000000     0.822360000000     0.0458483  
H8       H      0.865290000000     0.298640000000     0.511510000000     0.0862075  
H9       H      0.949960000000     0.321000000000     0.526000000000     0.0543126  
H10      H      0.994760000000     0.393030000000     0.580040000000     0.0467937  
H11      H      0.833890000000     0.287600000000     0.585090000000     0.0770633  
H12      H      0.876280000000     0.363380000000     0.620780000000     0.0359298  
H13      H      0.967080000000     0.315650000000     0.606320000000     0.0495665  
H14      H      0.956380000000     0.376370000000     0.646160000000     0.0435892  
H15      H      0.017880000000     0.636800000000     0.306580000000     0.0626366  
H16      H      0.098750000000     0.649580000000     0.323570000000     0.0432383  
H17      H      0.149590000000     0.718450000000     0.381530000000     0.0448188  
H18      H      0.986610000000     0.630510000000     0.378680000000     0.0647209  
H19      H      0.032750000000     0.705180000000     0.412500000000     0.0329838  
H20      H      0.112200000000     0.639160000000     0.403820000000     0.0450177  
H21      H      0.110970000000     0.704440000000     0.446650000000     0.0429653  
H22      H      0.602710000000     0.681930000000     0.761020000000     0.0698106  
H23      H      0.534460000000     0.684340000000     0.794250000000     0.0471768  
H24      H      0.497100000000     0.640970000000     0.888680000000     0.058398   
H25      H      0.650580000000     0.707660000000     0.810930000000     0.0795125  
H26      H      0.620330000000     0.654100000000     0.893160000000     0.044624   
H27      H      0.539120000000     0.721640000000     0.858870000000     0.0548521  
H28      H      0.542600000000     0.674190000000     0.941080000000     0.0623614  
H29      H      0.217940000000     0.023750000000     0.224510000000     0.0736189  
H30      H      0.263600000000     0.997350000000     0.141020000000     0.0448126  
H31      H      0.340050000000     0.040450000000     0.172170000000     0.0454364  
H32      H      0.203850000000     0.995970000000     0.302620000000     0.0730048  
H33      H      0.282340000000     0.027980000000     0.328340000000     0.0319434  
H34      H      0.278490000000     0.959310000000     0.175000000000     0.0467477  
H35      H      0.328740000000     0.015100000000     0.252070000000     0.0459026  
H36      H      0.436910000000     0.364430000000     0.180150000000     0.0667301  
H37      H      0.359890000000     0.347810000000     0.151340000000     0.0586697  
H38      H      0.364790000000     0.381140000000     0.047400000000     0.0554503  
H39      H      0.455300000000     0.327030000000     0.155190000000     0.0733463  
H40      H      0.459910000000     0.350300000000     0.041060000000     0.0383669  
H41      H      0.327590000000     0.302710000000     0.096500000000     0.0585385  
H42      H      0.373290000000     0.341060000000     0.005610000000     0.0525851  
H43      H      0.757840000000     0.901940000000     0.623220000000     0.0625118  
H44      H      0.736170000000     0.819650000000     0.619740000000     0.0594916  
H45      H      0.656400000000     0.774540000000     0.633660000000     0.0492372  
H46      H      0.753900000000     0.927900000000     0.549220000000     0.0642154  
H47      H      0.672080000000     0.879710000000     0.551510000000     0.0311318  
H48      H      0.713300000000     0.788950000000     0.545580000000     0.0547929  
H49      H      0.647090000000     0.794940000000     0.558150000000     0.0483804  
H50      H      0.653500000000     0.803350000000     0.122940000000     0.0713317  
H51      H      0.744790000000     0.857670000000     0.110380000000     0.048336   
H52      H      0.757150000000     0.904580000000     0.017520000000     0.047341   
H53      H      0.626940000000     0.829760000000     0.162960000000     0.0676006  
H54      H      0.642480000000     0.880680000000     0.072740000000     0.0304963  
H55      H      0.765730000000     0.913160000000     0.139900000000     0.0487943  
H56      H      0.730230000000     0.930960000000     0.055450000000     0.0414221  
H57      H      0.837280000000     0.851500000000     0.241820000000     0.0766899  
H58      H      0.756150000000     0.776590000000     0.197230000000     0.0493677  
H59      H      0.755420000000     0.707140000000     0.210930000000     0.0484443  
H60      H      0.845410000000     0.850060000000     0.327300000000     0.0733239  
H61      H      0.840050000000     0.784750000000     0.323060000000     0.047816   
H62      H      0.720900000000     0.744940000000     0.263210000000     0.0502804  
H63      H      0.770440000000     0.718630000000     0.295640000000     0.0450526  
H64      H      0.681430000000     0.979770000000     0.471960000000     0.0705551  
H65      H      0.606230000000     0.899300000000     0.487410000000     0.052049   
H66      H      0.543410000000     0.898440000000     0.432960000000     0.0473362  
H67      H      0.703680000000     0.991780000000     0.390990000000     0.0650431  
H68      H      0.640500000000     0.993750000000     0.348730000000     0.0291097  
H69      H      0.588450000000     0.863860000000     0.416910000000     0.0481314  
H70      H      0.573230000000     0.915950000000     0.357880000000     0.0421658  
H71      H      0.948160000000     0.480400000000     0.721800000000     0.0665446  
H72      H      0.045440000000     0.532560000000     0.720880000000     0.0446996  
H73      H      0.062070000000     0.597420000000     0.656120000000     0.0447125  
H74      H      0.925770000000     0.501260000000     0.781960000000     0.0716933  
H75      H      0.955080000000     0.571980000000     0.723970000000     0.0416886  
H76      H      0.065570000000     0.578880000000     0.775300000000     0.0451759  
H77      H      0.033740000000     0.613940000000     0.712100000000     0.0465709  
H78      H      0.921790000000     0.421700000000     0.277770000000     0.074369   
H79      H      0.029440000000     0.435470000000     0.266000000000     0.0595586  
H80      H      0.067330000000     0.486560000000     0.175170000000     0.044162   
H81      H      0.945460000000     0.476200000000     0.244280000000     0.0621533  
H82      H      0.928750000000     0.426550000000     0.155170000000     0.0496472  
H83      H      0.060740000000     0.490850000000     0.296640000000     0.0454027  
H84      H      0.047050000000     0.522440000000     0.199470000000     0.04384    
H85      H      0.941270000000     0.567820000000     0.173990000000     0.061966   
H86      H      0.007600000000     0.637700000000     0.132180000000     0.0463793  
H87      H      0.013220000000     0.632530000000     0.013910000000     0.0465076  
H88      H      0.887780000000     0.562340000000     0.169750000000     0.0715794  
H89      H      0.888820000000     0.557550000000     0.049060000000     0.0360131  
H90      H      0.999880000000     0.679700000000     0.093090000000     0.0509536  
H91      H      0.961810000000     0.630410000000     0.001920000000     0.0458831  
H92      H      0.386660000000     0.184680000000     0.906360000000     0.0720317  
H93      H      0.294460000000     0.148130000000     0.909250000000     0.0476211  
H94      H      0.261230000000     0.070490000000     0.873830000000     0.0525719  
H95      H      0.408600000000     0.168640000000     0.973270000000     0.0739715  
H96      H      0.367330000000     0.090680000000     0.939630000000     0.0333861  
H97      H      0.267700000000     0.112020000000     0.977290000000     0.051087   
H98      H      0.288350000000     0.058340000000     0.938580000000     0.0515717  
H99      H      0.392160000000     0.182940000000     0.394180000000     0.0789067  
H100     H      0.305710000000     0.127870000000     0.387320000000     0.140548   
H101     H      0.265120000000     0.129340000000     0.476430000000     0.0556751  
H102     H      0.408480000000     0.239760000000     0.377170000000     0.0670604  
H103     H      0.376400000000     0.248330000000     0.474780000000     0.0355626  
H104     H      0.274470000000     0.138960000000     0.355610000000     0.132798   
H105     H      0.279400000000     0.185150000000     0.457060000000     0.0466138  
H106     H      0.469920000000     0.116940000000     0.660290000000     0.0764888  
H107     H      0.411680000000     0.035080000000     0.691530000000     0.0556935  
H108     H      0.344820000000     0.018420000000     0.636270000000     0.0714281  
H109     H      0.502140000000     0.125920000000     0.587660000000     0.0768631  
H110     H      0.433190000000     0.095800000000     0.521960000000     0.0366871  
H111     H      0.400180000000     0.991840000000     0.633790000000     0.0501523  
H112     H      0.368700000000     0.021880000000     0.557000000000     0.0560511  
H113     H      0.999950000000     0.356830000000     0.928750000000     0.0784569  
H114     H      0.117320000000     0.441070000000     0.911840000000     0.061611   
H115     H      0.134210000000     0.438770000000     0.794010000000     0.0459033  
H116     H      0.999530000000     0.367730000000     0.843800000000     0.0548706  
H117     H      0.024760000000     0.314820000000     0.854590000000     0.0334029  
H118     H      0.108750000000     0.478970000000     0.863330000000     0.0448553  
H119     H      0.079700000000     0.425410000000     0.772520000000     0.0379434  
H120     H      0.284090000000     0.239200000000     0.844570000000     0.0709623  
H121     H      0.209030000000     0.171830000000     0.820100000000     0.0527767  
H122     H      0.162930000000     0.186710000000     0.747990000000     0.0529745  
H123     H      0.324600000000     0.261870000000     0.781240000000     0.0680644  
H124     H      0.283890000000     0.288050000000     0.720130000000     0.0321208  
H125     H      0.200850000000     0.143720000000     0.743370000000     0.0498995  
H126     H      0.203650000000     0.206390000000     0.685040000000     0.0453899  
H127     H      0.478800000000     0.541010000000     0.716930000000     0.0723327  
H128     H      0.519010000000     0.485550000000     0.714650000000     0.0577356  
H129     H      0.470990000000     0.421180000000     0.780390000000     0.0514751  
H130     H      0.434330000000     0.522680000000     0.659480000000     0.0677851  
H131     H      0.391310000000     0.452750000000     0.718970000000     0.035774   
H132     H      0.491130000000     0.439010000000     0.661020000000     0.0525242  
H133     H      0.425530000000     0.406640000000     0.726740000000     0.0484109  
H134     H      0.477910000000     0.544380000000     0.231550000000     0.0665309  
H135     H      0.518360000000     0.488390000000     0.222400000000     0.0587197  
H136     H      0.577710000000     0.523080000000     0.142790000000     0.0620617  
H137     H      0.511910000000     0.594760000000     0.275400000000     0.0673498  
H138     H      0.568820000000     0.620130000000     0.194380000000     0.0309572  
H139     H      0.570190000000     0.512810000000     0.264270000000     0.0517478  
H140     H      0.603360000000     0.574530000000     0.187490000000     0.0457284  
H141     H      0.903690000000     0.217220000000     0.925950000000     0.0731082  
H142     H      0.816210000000     0.147060000000     0.908730000000     0.142903   
H143     H      0.771070000000     0.151690000000     0.987330000000     0.045139   
H144     H      0.912140000000     0.266660000000     0.884890000000     0.0609103  
H145     H      0.859430000000     0.272390000000     0.957040000000     0.0372805  
H146     H      0.784460000000     0.151740000000     0.866120000000     0.13686    
H147     H      0.779370000000     0.202540000000     0.951050000000     0.0490085  
H148     H      0.921660000000     0.190530000000     0.487880000000     0.0674894  
H149     H      0.789390000000     0.102670000000     0.484380000000     0.0735711  
H150     H      0.788580000000     0.073160000000     0.377060000000     0.046844   
H151     H      0.909630000000     0.142650000000     0.439570000000     0.0554649  
H152     H      0.904300000000     0.198980000000     0.372420000000     0.0267577  
H153     H      0.808640000000     0.064230000000     0.494790000000     0.0440389  
H154     H      0.843030000000     0.081480000000     0.386920000000     0.0421349  
H155     H      0.148880000000     0.272770000000     0.524550000000     0.0673272  
H156     H      0.203630000000     0.364550000000     0.530490000000     0.047056   
H157     H      0.169690000000     0.401100000000     0.470710000000     0.0440297  
H158     H      0.100140000000     0.251170000000     0.573460000000     0.0679013  
H159     H      0.072740000000     0.290720000000     0.509230000000     0.0293209  
H160     H      0.185750000000     0.392560000000     0.585860000000     0.0461435  
H161     H      0.120410000000     0.372390000000     0.518960000000     0.0414842  
H162     H      0.241470000000     0.350230000000     0.005670000000     0.0724218  
H163     H      0.198650000000     0.392990000000     0.996970000000     0.0557348  
H164     H      0.113580000000     0.338460000000     0.984950000000     0.117886   
H165     H      0.235160000000     0.318500000000     0.078240000000     0.0693139  
H166     H      0.157920000000     0.267280000000     0.052490000000     0.0521993  
H167     H      0.168020000000     0.393710000000     0.067030000000     0.051873   
H168     H      0.118220000000     0.312240000000     0.056230000000     0.0706293  
H169     H      0.999480000000     0.209330000000     0.239410000000     0.071966   
H170     H      0.995860000000     0.281860000000     0.283060000000     0.0524359  
H171     H      0.044450000000     0.347130000000     0.216640000000     0.0559522  
H172     H      0.970960000000     0.185350000000     0.164250000000     0.0738075  
H173     H      0.019580000000     0.253630000000     0.105470000000     0.0418545  
H174     H      0.964530000000     0.298980000000     0.234710000000     0.07385    
H175     H      0.016570000000     0.318400000000     0.143400000000     0.0660792  
H176     H      0.383120000000     0.414190000000     0.313530000000     0.0663492  
H177     H      0.370370000000     0.485710000000     0.322950000000     0.0475915  
H178     H      0.296640000000     0.464970000000     0.359860000000     0.0467469  
H179     H      0.382290000000     0.388260000000     0.389340000000     0.067417   
H180     H      0.306300000000     0.360990000000     0.407060000000     0.0325258  
H181     H      0.371000000000     0.505010000000     0.404480000000     0.0476604  
H182     H      0.302340000000     0.438260000000     0.430810000000     0.0415873  
H183     H      0.623620000000     0.048860000000     0.758740000000     0.0696892  
H184     H      0.579040000000     0.966360000000     0.762430000000     0.0484301  
H185     H      0.514500000000     0.940930000000     0.829170000000     0.0474512  
H186     H      0.608070000000     0.079880000000     0.705690000000     0.072094   
H187     H      0.544340000000     0.063310000000     0.772000000000     0.0385266  
H188     H      0.531730000000     0.937480000000     0.710760000000     0.0481439  
H189     H      0.490720000000     0.963110000000     0.774570000000     0.0441457  
H190     H      0.465580000000     0.067200000000     0.298910000000     0.0653964  
H191     H      0.410600000000     0.984840000000     0.305960000000     0.0431288  
H192     H      0.424570000000     0.947270000000     0.217550000000     0.0410326  
H193     H      0.518900000000     0.088560000000     0.335560000000     0.0748875  
H194     H      0.537640000000     0.048370000000     0.254630000000     0.0377939  
H195     H      0.427190000000     0.948120000000     0.341290000000     0.0454203  
H196     H      0.476650000000     0.959760000000     0.251330000000     0.0468518  
H197     H      0.649790000000     0.108420000000     0.218300000000     0.0727338  
H198     H      0.649840000000     0.036850000000     0.192930000000     0.0476964  
H199     H      0.630740000000     0.012480000000     0.079680000000     0.0502038  
H200     H      0.693350000000     0.160300000000     0.187880000000     0.0750366  
H201     H      0.668920000000     0.140450000000     0.075860000000     0.0403167  
H202     H      0.696180000000     0.039820000000     0.151170000000     0.0494049  
H203     H      0.675980000000     0.063400000000     0.050560000000     0.0500638  
H204     H      0.178360000000     0.928680000000     0.492690000000     0.0669059  
H205     H      0.272060000000     0.913670000000     0.505080000000     0.0594885  
H206     H      0.259200000000     0.864170000000     0.597690000000     0.0419102  
H207     H      0.148000000000     0.874590000000     0.527660000000     0.055      
H208     H      0.181630000000     0.926020000000     0.614970000000     0.0329157  
H209     H      0.247510000000     0.857860000000     0.475850000000     0.0446181  
H210     H      0.203570000000     0.827730000000     0.573250000000     0.0439799  
H211     H      0.054730000000     0.779440000000     0.068320000000     0.0654316  
H212     H      0.092700000000     0.736740000000     0.072590000000     0.0396408  
H213     H      0.144980000000     0.759190000000     0.988300000000     0.0448911  
H214     H      0.077330000000     0.832600000000     0.108190000000     0.0691659  
H215     H      0.133290000000     0.868990000000     0.027590000000     0.0363756  
H216     H      0.144300000000     0.758010000000     0.114060000000     0.0443889  
H217     H      0.183280000000     0.809000000000     0.029130000000     0.0424283  
H218     H      0.329730000000     0.975150000000     0.965050000000     0.0614098  
H219     H      0.320680000000     0.895040000000     0.989250000000     0.0420218  
H220     H      0.300420000000     0.852240000000     0.888710000000     0.0446492  
H221     H      0.380360000000     0.015770000000     0.927650000000     0.0755138  
H222     H      0.362460000000     0.969540000000     0.829350000000     0.0322124  
H223     H      0.364700000000     0.886350000000     0.963930000000     0.046274   
H224     H      0.350030000000     0.892840000000     0.849030000000     0.0424499  
H225     H      0.858680000000     0.747970000000     0.975720000000     0.0690138  
H226     H      0.765630000000     0.634730000000     0.974450000000     0.0665681  
H227     H      0.768170000000     0.603930000000     0.869300000000     0.0522349  
H228     H      0.884350000000     0.725670000000     0.925050000000     0.0580824  
H229     H      0.839390000000     0.744410000000     0.858590000000     0.0356847  
H230     H      0.796440000000     0.607010000000     0.985140000000     0.0502614  
H231     H      0.825710000000     0.623580000000     0.876790000000     0.0507272  
H232     H      0.830880000000     0.708460000000     0.393850000000     0.0603579  
H233     H      0.844350000000     0.639230000000     0.401690000000     0.0539125  
H234     H      0.920950000000     0.661640000000     0.372620000000     0.0496982  
H235     H      0.855210000000     0.750270000000     0.455680000000     0.0666923  
H236     H      0.928970000000     0.772420000000     0.418170000000     0.0382767  
H237     H      0.874030000000     0.637010000000     0.471690000000     0.0576021  
H238     H      0.941160000000     0.703590000000     0.435380000000     0.0539166  
H239     H      0.679970000000     0.657210000000     0.513080000000     0.0617234  
H240     H      0.688060000000     0.585560000000     0.496540000000     0.0458995  
H241     H      0.699390000000     0.557880000000     0.601570000000     0.0535718  
H242     H      0.629560000000     0.648740000000     0.548740000000     0.0668752  
H243     H      0.645800000000     0.622940000000     0.650170000000     0.044432   
H244     H      0.641990000000     0.532600000000     0.517850000000     0.0515125  
H245     H      0.650500000000     0.554760000000     0.633950000000     0.0521719  
H246     H      0.042400000000     0.750580000000     0.645030000000     0.0639191  
H247     H      0.033880000000     0.821600000000     0.661310000000     0.0458869  
H248     H      0.966020000000     0.804770000000     0.716420000000     0.0509578  
H249     H      0.052320000000     0.727120000000     0.716320000000     0.0642271  
H250     H      0.980620000000     0.702310000000     0.759640000000     0.0335393  
H251     H      0.045130000000     0.845970000000     0.741280000000     0.0535782  
H252     H      0.979600000000     0.782580000000     0.785580000000     0.0508433  
N1       N      0.825440000000     0.068950000000     0.787730000000    -0.177362   
N2       N      0.759580000000     0.981370000000     0.794690000000    -0.155154   
N3       N      0.931020000000     0.385870000000     0.557690000000    -0.170107   
N4       N      0.898360000000     0.295840000000     0.595030000000    -0.155895   
N5       N      0.090420000000     0.720910000000     0.359340000000    -0.172172   
N6       N      0.046840000000     0.629370000000     0.391280000000    -0.161145   
N7       N      0.552340000000     0.630470000000     0.880620000000    -0.167822   
N8       N      0.597580000000     0.719210000000     0.836660000000    -0.158033   
N9       N      0.305410000000     0.060040000000     0.238120000000    -0.176725   
N10      N      0.235880000000     0.973790000000     0.234100000000    -0.158375   
N11      N      0.430000000000     0.389890000000     0.054170000000    -0.171496   
N12      N      0.389580000000     0.310050000000     0.126120000000    -0.157772   
N13      N      0.671000000000     0.842500000000     0.633950000000    -0.176496   
N14      N      0.734750000000     0.858650000000     0.541600000000    -0.162237   
N15      N      0.686460000000     0.866130000000     0.022380000000    -0.174045   
N16      N      0.697230000000     0.867420000000     0.158590000000    -0.16091    
N17      N      0.821760000000     0.758830000000     0.229980000000    -0.176103   
N18      N      0.781640000000     0.803710000000     0.289920000000    -0.159375   
N19      N      0.598270000000     0.966340000000     0.430030000000    -0.171333   
N20      N      0.649850000000     0.925620000000     0.407510000000    -0.159829   
N21      N      0.991290000000     0.558370000000     0.654290000000    -0.169673   
N22      N      0.996210000000     0.531360000000     0.781420000000    -0.159968   
N23      N      0.999540000000     0.462200000000     0.155710000000    -0.169917   
N24      N      0.990440000000     0.463410000000     0.294680000000    -0.154148   
N25      N      0.954710000000     0.571080000000     0.042020000000    -0.173612   
N26      N      0.941660000000     0.623620000000     0.132630000000    -0.160105   
N27      N      0.331490000000     0.100090000000     0.864670000000    -0.167274   
N28      N      0.339000000000     0.147010000000     0.977980000000    -0.160031   
N29      N      0.332250000000     0.180310000000     0.497410000000    -0.171404   
N30      N      0.341640000000     0.192040000000     0.358630000000    -0.146601   
N31      N      0.392080000000     0.084260000000     0.603170000000    -0.169526   
N32      N      0.454180000000     0.057300000000     0.610030000000    -0.159699   
N33      N      0.082180000000     0.373170000000     0.821030000000    -0.176      
N34      N      0.050100000000     0.420790000000     0.896790000000    -0.153778   
N35      N      0.221550000000     0.250510000000     0.765140000000    -0.168641   
N36      N      0.265060000000     0.200830000000     0.759320000000    -0.161134   
N37      N      0.441600000000     0.462760000000     0.785480000000    -0.1697     
N38      N      0.470830000000     0.488200000000     0.656250000000    -0.157274   
N39      N      0.543970000000     0.560740000000     0.140730000000    -0.171338   
N40      N      0.533120000000     0.546230000000     0.276130000000    -0.159099   
N41      N      0.834560000000     0.209570000000     0.002070000000    -0.176864   
N42      N      0.850280000000     0.208190000000     0.867800000000    -0.14614    
N43      N      0.840810000000     0.140610000000     0.371730000000    -0.171367   
N44      N      0.858140000000     0.132090000000     0.503970000000    -0.153311   
N45      N      0.129960000000     0.330260000000     0.454390000000    -0.173755   
N46      N      0.147200000000     0.320970000000     0.585320000000    -0.159928   
N47      N      0.151580000000     0.304630000000     0.976450000000    -0.164266   
N48      N      0.203260000000     0.357700000000     0.078670000000    -0.159689   
N49      N      0.053380000000     0.292120000000     0.187680000000    -0.173253   
N50      N      0.963030000000     0.238500000000     0.204190000000    -0.1569     
N51      N      0.296150000000     0.403100000000     0.343720000000    -0.171687   
N52      N      0.383190000000     0.450360000000     0.395230000000    -0.160101   
N53      N      0.542740000000     0.012290000000     0.830870000000    -0.169599   
N54      N      0.567970000000     0.008670000000     0.701320000000    -0.158491   
N55      N      0.476430000000     0.014800000000     0.206920000000    -0.170723   
N56      N      0.474910000000     0.018050000000     0.345030000000    -0.159274   
N57      N      0.624710000000     0.071290000000     0.090040000000    -0.168449   
N58      N      0.699400000000     0.102480000000     0.170750000000    -0.159654   
N59      N      0.215180000000     0.888350000000     0.615360000000    -0.172823   
N60      N      0.205310000000     0.886360000000     0.477290000000    -0.155589   
N61      N      0.131430000000     0.812920000000     0.983050000000    -0.17163    
N62      N      0.114780000000     0.799360000000     0.115910000000    -0.160195   
N63      N      0.304170000000     0.914760000000     0.864600000000    -0.173235   
N64      N      0.375690000000     0.953090000000     0.952700000000    -0.159214   
N65      N      0.809700000000     0.673160000000     0.852380000000    -0.171568   
N66      N      0.834170000000     0.678140000000     0.985460000000    -0.15534    
N67      N      0.911900000000     0.717560000000     0.355610000000    -0.17041    
N68      N      0.860890000000     0.691580000000     0.468620000000    -0.160331   
N69      N      0.701900000000     0.620990000000     0.617840000000    -0.169814   
N70      N      0.632510000000     0.589500000000     0.527040000000    -0.160178   
N71      N      0.961930000000     0.741000000000     0.702640000000    -0.16979    
N72      N      0.054150000000     0.789480000000     0.728740000000    -0.15883    
O1       O      0.899450000000     0.744080000000     0.678040000000    -0.393809   
O2       O      0.768470000000     0.684240000000     0.639020000000    -0.369031   
O3       O      0.821590000000     0.709640000000     0.754960000000    -0.389859   
O4       O      0.846730000000     0.718760000000     0.561670000000    -0.394887   
O5       O      0.845350000000     0.653980000000     0.565410000000    -0.392678   
O6       O      0.814860000000     0.642340000000     0.756740000000    -0.396105   
O7       O      0.765110000000     0.618730000000     0.638340000000    -0.394594   
O8       O      0.894890000000     0.678020000000     0.683640000000    -0.371753   
O9       O      0.112990000000     0.850980000000     0.774470000000    -0.385719   
O10      O      0.239460000000     0.914480000000     0.840940000000    -0.369264   
O11      O      0.197060000000     0.902130000000     0.716260000000    -0.3895     
O12      O      0.152970000000     0.863330000000     0.899580000000    -0.382786   
O13      O      0.157760000000     0.802180000000     0.886370000000    -0.395863   
O14      O      0.202270000000     0.841300000000     0.701710000000    -0.395575   
O15      O      0.242480000000     0.852580000000     0.827660000000    -0.397689   
O16      O      0.117130000000     0.789630000000     0.759950000000    -0.393147   
O17      O      0.441730000000     0.015220000000     0.977590000000    -0.38926    
O18      O      0.568070000000     0.074380000000     0.039260000000    -0.364958   
O19      O      0.525790000000     0.045430000000     0.914880000000    -0.368208   
O20      O      0.487230000000     0.044190000000     0.103060000000    -0.365395   
O21      O      0.479110000000     0.976960000000     0.117150000000    -0.393573   
O22      O      0.517730000000     0.978280000000     0.930090000000    -0.392569   
O23      O      0.562050000000     0.008260000000     0.055110000000    -0.387848   
O24      O      0.434610000000     0.948470000000     0.992830000000    -0.391823   
O25      O      0.112960000000     0.350840000000     0.235610000000    -0.397828   
O26      O      0.238680000000     0.408240000000     0.299480000000    -0.397919   
O27      O      0.194420000000     0.387020000000     0.173280000000    -0.394702   
O28      O      0.155580000000     0.371760000000     0.361510000000    -0.400105   
O29      O      0.145810000000     0.303330000000     0.361630000000    -0.369697   
O30      O      0.195920000000     0.323640000000     0.177400000000    -0.380798   
O31      O      0.232780000000     0.341670000000     0.307660000000    -0.374656   
O32      O      0.110380000000     0.285650000000     0.230680000000    -0.371769   
O33      O      0.763870000000     0.165900000000     0.197660000000    -0.389774   
O34      O      0.896670000000     0.235660000000     0.208760000000    -0.38356    
O35      O      0.833970000000     0.221700000000     0.110600000000    -0.381081   
O36      O      0.830750000000     0.182910000000     0.296740000000    -0.38023    
O37      O      0.829760000000     0.121060000000     0.264210000000    -0.394147   
O38      O      0.833590000000     0.160380000000     0.076410000000    -0.390196   
O39      O      0.898770000000     0.175660000000     0.175610000000    -0.391621   
O40      O      0.765990000000     0.105780000000     0.165180000000    -0.397088   
O41      O      0.566350000000     0.585030000000     0.501830000000    -0.389957   
O42      O      0.439030000000     0.513200000000     0.442430000000    -0.394421   
O43      O      0.482940000000     0.532410000000     0.566530000000    -0.390447   
O44      O      0.519580000000     0.564620000000     0.377610000000    -0.393065   
O45      O      0.528070000000     0.505460000000     0.367350000000    -0.389566   
O46      O      0.492010000000     0.473560000000     0.557370000000    -0.388869   
O47      O      0.446360000000     0.453360000000     0.432460000000    -0.39258    
O48      O      0.573280000000     0.525070000000     0.490510000000    -0.395732   
O49      O      0.084740000000     0.310670000000     0.793680000000    -0.392522   
O50      O      0.155440000000     0.248830000000     0.770040000000    -0.393611   
O51      O      0.121700000000     0.274340000000     0.878400000000    -0.375129   
O52      O      0.117840000000     0.284000000000     0.681530000000    -0.395316   
O53      O      0.179390000000     0.349920000000     0.684090000000    -0.394558   
O54      O      0.182630000000     0.341130000000     0.881420000000    -0.382736   
O55      O      0.217050000000     0.314280000000     0.773860000000    -0.372878   
O56      O      0.146350000000     0.376610000000     0.791120000000    -0.398493   
O57      O      0.264540000000     0.142080000000     0.707500000000    -0.397704   
O58      O      0.328630000000     0.079930000000     0.640920000000    -0.373807   
O59      O      0.297350000000     0.090440000000     0.766190000000    -0.386635   
O60      O      0.295990000000     0.131830000000     0.581590000000    -0.388695   
O61      O      0.358170000000     0.194590000000     0.602430000000    -0.377926   
O62      O      0.363750000000     0.149700000000     0.781380000000    -0.385672   
O63      O      0.392190000000     0.142870000000     0.653930000000    -0.37056    
O64      O      0.328790000000     0.202270000000     0.730300000000    -0.399081   
O65      O      0.991390000000     0.428320000000     0.928800000000    -0.386535   
O66      O      0.943480000000     0.505760000000     0.996320000000    -0.374292   
O67      O      0.964240000000     0.486240000000     0.869800000000    -0.39481    
O68      O      0.968200000000     0.448040000000     0.054400000000    -0.380527   
O69      O      0.036240000000     0.505210000000     0.066540000000    -0.39018    
O70      O      0.033410000000     0.541820000000     0.878190000000    -0.393215   
O71      O      0.011610000000     0.562980000000     0.004100000000    -0.399252   
O72      O      0.059530000000     0.485570000000     0.940120000000    -0.396752   
O73      O      0.652630000000     0.862660000000     0.383120000000    -0.398989   
O74      O      0.718640000000     0.801700000000     0.323560000000    -0.399918   
O75      O      0.699550000000     0.825780000000     0.447070000000    -0.4017     
O76      O      0.672340000000     0.837910000000     0.259650000000    -0.397844   
O77      O      0.737780000000     0.899450000000     0.250800000000    -0.395609   
O78      O      0.756820000000     0.894860000000     0.444330000000    -0.396993   
O79      O      0.781850000000     0.866010000000     0.328010000000    -0.390627   
O80      O      0.712810000000     0.928600000000     0.368590000000    -0.39256    
O81      O      0.817100000000     0.693280000000     0.200690000000    -0.403153   
O82      O      0.881030000000     0.626540000000     0.165230000000    -0.40046    
O83      O      0.869370000000     0.670000000000     0.275990000000    -0.400103   
O84      O      0.828070000000     0.650630000000     0.088620000000    -0.39568    
O85      O      0.887300000000     0.715110000000     0.062040000000    -0.397352   
O86      O      0.928780000000     0.734350000000     0.248600000000    -0.369045   
O87      O      0.941030000000     0.689520000000     0.136410000000    -0.389671   
O88      O      0.877330000000     0.756740000000     0.174950000000    -0.372974   
O89      O      0.535050000000     0.954400000000     0.481600000000    -0.395565   
O90      O      0.461550000000     0.999280000000     0.571210000000    -0.394472   
O91      O      0.472810000000     0.979550000000     0.437680000000    -0.391515   
O92      O      0.522530000000     0.973460000000     0.614410000000    -0.391348   
O93      O      0.575730000000     0.043960000000     0.603330000000    -0.38633    
O94      O      0.527710000000     0.049060000000     0.424980000000    -0.387061   
O95      O      0.515830000000     0.068820000000     0.555940000000    -0.396496   
O96      O      0.589760000000     0.023710000000     0.470550000000    -0.370483   
O97      O      0.358620000000     0.123810000000     0.191900000000    -0.39309    
O98      O      0.400770000000     0.252070000000     0.147990000000    -0.398046   
O99      O      0.380320000000     0.201280000000     0.265130000000    -0.39203    
O100     O      0.377510000000     0.173850000000     0.073210000000    -0.395765   
O101     O      0.307200000000     0.156250000000     0.069690000000    -0.397351   
O102     O      0.311420000000     0.188550000000     0.259200000000    -0.383334   
O103     O      0.331880000000     0.238330000000     0.138150000000    -0.383841   
O104     O      0.289580000000     0.110880000000     0.194280000000    -0.383718   
O105     O      0.487460000000     0.443890000000     0.995570000000    -0.378499   
O106     O      0.550460000000     0.566070000000     0.913450000000    -0.374748   
O107     O      0.545480000000     0.530560000000     0.042290000000    -0.386236   
O108     O      0.492540000000     0.478060000000     0.866020000000    -0.389898   
O109     O      0.436420000000     0.488930000000     0.886500000000    -0.367131   
O110     O      0.488800000000     0.540320000000     0.064490000000    -0.370201   
O111     O      0.493510000000     0.575230000000     0.935990000000    -0.384191   
O112     O      0.429520000000     0.451900000000     0.016080000000    -0.38912    
O113     O      0.225580000000     0.903670000000     0.248340000000    -0.395037   
O114     O      0.155090000000     0.779070000000     0.321840000000    -0.399853   
O115     O      0.166070000000     0.816550000000     0.195980000000    -0.397618   
O116     O      0.213840000000     0.863930000000     0.375850000000    -0.397167   
O117     O      0.155550000000     0.871700000000     0.395630000000    -0.395129   
O118     O      0.113380000000     0.833760000000     0.210470000000    -0.38665    
O119     O      0.097310000000     0.788630000000     0.333160000000    -0.374049   
O120     O      0.171640000000     0.916920000000     0.275070000000    -0.391946   
O121     O      0.051110000000     0.573790000000     0.445070000000    -0.398022   
O122     O      0.992590000000     0.450520000000     0.524780000000    -0.395739   
O123     O      0.021730000000     0.487210000000     0.395660000000    -0.394314   
O124     O      0.023810000000     0.539030000000     0.573740000000    -0.398293   
O125     O      0.957110000000     0.529370000000     0.556060000000    -0.366961   
O126     O      0.955610000000     0.479110000000     0.376490000000    -0.386785   
O127     O      0.926920000000     0.442620000000     0.505510000000    -0.366474   
O128     O      0.985180000000     0.566280000000     0.426850000000    -0.392011   
O129     O      0.912970000000     0.247920000000     0.651220000000    -0.39865    
O130     O      0.876510000000     0.128010000000     0.729740000000    -0.395456   
O131     O      0.894160000000     0.164960000000     0.599000000000    -0.389943   
O132     O      0.892820000000     0.210830000000     0.781360000000    -0.386406   
O133     O      0.823090000000     0.193390000000     0.764960000000    -0.388722   
O134     O      0.822100000000     0.139630000000     0.591030000000    -0.388748   
O135     O      0.806190000000     0.110850000000     0.725040000000    -0.382459   
O136     O      0.842980000000     0.227760000000     0.632050000000    -0.379914   
O137     O      0.666090000000     0.780410000000     0.840000000000    -0.392176   
O138     O      0.746770000000     0.911040000000     0.810910000000    -0.402626   
O139     O      0.712690000000     0.856490000000     0.925200000000    -0.393376   
O140     O      0.699430000000     0.836020000000     0.730090000000    -0.399113   
O141     O      0.646280000000     0.853660000000     0.730430000000    -0.383458   
O142     O      0.651560000000     0.861090000000     0.926400000000    -0.383586   
O143     O      0.690940000000     0.923980000000     0.821690000000    -0.382851   
O144     O      0.607970000000     0.790090000000     0.835140000000    -0.384999   


