data_structure

_audit_creation_method RASPA-1.0
_audit_creation_date 2023-6-4
_audit_author_name 'Poobodin Mano'

_cell_length_a    29.0366
_cell_length_b    29.7228
_cell_length_c    21.1288
_cell_angle_alpha 89.9989
_cell_angle_beta  89.9989
_cell_angle_gamma 96.7592
_cell_volume      18108.4

_symmetry_cell_setting          triclinic
_symmetry_space_group_name_Hall 'P 1'
_symmetry_space_group_name_H-M  'P 1'
_symmetry_Int_Tables_number     1

_symmetry_equiv_pos_as_xyz 'x,y,z'

loop_
_atom_site_label
_atom_site_type_symbol
_atom_site_fract_x
_atom_site_fract_y
_atom_site_fract_z
_atom_site_charge
C1       C      0.053440000000     0.429000000000     0.007170000000     0.382363   
C2       C      0.425900000000     0.048400000000     0.006790000000     0.403025   
C3       C      0.055440000000     0.056160000000     0.003940000000     0.419168   
C4       C      0.425260000000     0.420860000000     0.011680000000     0.41904    
C5       C      0.051150000000     0.403720000000     0.512930000000     0.412892   
C6       C      0.443050000000     0.040640000000     0.509950000000     0.389294   
C7       C      0.072050000000     0.030610000000     0.514450000000     0.43534    
C8       C      0.419420000000     0.416810000000     0.509150000000     0.4318     
C9       C      0.240910000000     0.241240000000     0.886370000000     0.496029   
C10      C      0.236790000000     0.239950000000     0.127810000000     0.496561   
C11      C      0.296920000000     0.179070000000     0.005650000000     0.441577   
C12      C      0.183180000000     0.301220000000     0.003170000000     0.464301   
C13      C      0.248330000000     0.223000000000     0.386430000000     0.468418   
C14      C      0.253580000000     0.224170000000     0.627830000000     0.466964   
C15      C      0.314390000000     0.171610000000     0.505350000000     0.461924   
C16      C      0.184030000000     0.277960000000     0.508790000000     0.438949   
C17      C      0.225270000000     0.189980000000     0.729870000000    -0.0153653  
C18      C      0.291900000000     0.251810000000     0.727800000000    -0.100125   
C19      C      0.204300000000     0.212990000000     0.785960000000    -0.00374749 
C20      C      0.270540000000     0.275290000000     0.783400000000     0.325829   
C21      C      0.288390000000     0.243120000000     0.284970000000    -0.0168452  
C22      C      0.211840000000     0.194030000000     0.285970000000    -0.101631   
C23      C      0.272180000000     0.269330000000     0.228460000000    -0.00357206 
C24      C      0.195300000000     0.221310000000     0.230500000000     0.330552   
C25      C      0.160850000000     0.353290000000     0.537200000000    -0.0173797  
C26      C      0.112350000000     0.301860000000     0.462210000000    -0.0957914  
C27      C      0.116230000000     0.369930000000     0.563520000000    -0.0054107  
C28      C      0.069750000000     0.327530000000     0.477970000000     0.315331   
C29      C      0.312500000000     0.345600000000     0.456880000000    -0.0343636  
C30      C      0.329250000000     0.333750000000     0.568220000000    -0.118883   
C31      C      0.352450000000     0.383030000000     0.448110000000     0.027547   
C32      C      0.350500000000     0.383410000000     0.567930000000     0.332261   
C33      C      0.379180000000     0.076450000000     0.560390000000    -0.0169789  
C34      C      0.413930000000     0.107270000000     0.457260000000    -0.088184   
C35      C      0.335240000000     0.095980000000     0.536070000000     0.00794625 
C36      C      0.393240000000     0.151230000000     0.477830000000     0.318579   
C37      C      0.135380000000     0.138350000000     0.553750000000    -0.02735    
C38      C      0.165140000000     0.113570000000     0.453970000000    -0.111406   
C39      C      0.118360000000     0.090290000000     0.573480000000     0.00578231 
C40      C      0.146210000000     0.064480000000     0.466690000000     0.331653   
C41      C      0.115620000000     0.392020000000     0.060560000000    -0.0200514  
C42      C      0.075960000000     0.357460000000     0.963590000000    -0.100816   
C43      C      0.161610000000     0.375750000000     0.038230000000    -0.00470699 
C44      C      0.120240000000     0.335330000000     0.946880000000     0.321761   
C45      C      0.395210000000     0.348820000000     0.965180000000    -0.000170874
C46      C      0.366320000000     0.375200000000     0.071930000000    -0.0986352  
C47      C      0.347110000000     0.324930000000     0.954610000000    -0.0257701  
C48      C      0.318950000000     0.353360000000     0.053150000000     0.321027   
C49      C      0.371470000000     0.154170000000     0.969590000000    -0.0121181  
C50      C      0.317620000000     0.103800000000     0.040690000000    -0.0862354  
C51      C      0.389360000000     0.108800000000     0.950690000000     0.00474687 
C52      C      0.362980000000     0.084340000000     0.060820000000     0.315436   
C53      C      0.090100000000     0.123990000000     0.950650000000    -0.00371079 
C54      C      0.115970000000     0.100780000000     0.061620000000    -0.0993445  
C55      C      0.136870000000     0.152190000000     0.945430000000    -0.0215863  
C56      C      0.162550000000     0.124910000000     0.045290000000     0.322205   
C57      C      0.053440000000     0.929000000000     0.007170000000     0.382303   
C58      C      0.425900000000     0.548400000000     0.006790000000     0.403076   
C59      C      0.055440000000     0.556160000000     0.003940000000     0.419271   
C60      C      0.425260000000     0.920860000000     0.011680000000     0.418984   
C61      C      0.051150000000     0.903720000000     0.512930000000     0.412844   
C62      C      0.443050000000     0.540640000000     0.509950000000     0.389349   
C63      C      0.072050000000     0.530610000000     0.514450000000     0.435403   
C64      C      0.419420000000     0.916810000000     0.509150000000     0.431738   
C65      C      0.240910000000     0.741240000000     0.886370000000     0.496188   
C66      C      0.236790000000     0.739950000000     0.127810000000     0.496564   
C67      C      0.296920000000     0.679070000000     0.005650000000     0.441426   
C68      C      0.183180000000     0.801220000000     0.003170000000     0.46431    
C69      C      0.248330000000     0.723000000000     0.386430000000     0.468541   
C70      C      0.253580000000     0.724170000000     0.627830000000     0.466964   
C71      C      0.314390000000     0.671610000000     0.505350000000     0.461922   
C72      C      0.184030000000     0.777950000000     0.508790000000     0.439013   
C73      C      0.225270000000     0.689980000000     0.729870000000    -0.0153578  
C74      C      0.291900000000     0.751810000000     0.727800000000    -0.100126   
C75      C      0.204300000000     0.712990000000     0.785960000000    -0.00375868 
C76      C      0.270540000000     0.775290000000     0.783400000000     0.325837   
C77      C      0.288390000000     0.743120000000     0.284970000000    -0.0168405  
C78      C      0.211840000000     0.694030000000     0.285970000000    -0.101622   
C79      C      0.272180000000     0.769330000000     0.228460000000    -0.00357009 
C80      C      0.195300000000     0.721310000000     0.230500000000     0.330549   
C81      C      0.160850000000     0.853290000000     0.537200000000    -0.0173788  
C82      C      0.112350000000     0.801860000000     0.462210000000    -0.0957994  
C83      C      0.116230000000     0.869930000000     0.563520000000    -0.00541575 
C84      C      0.069750000000     0.827530000000     0.477970000000     0.315328   
C85      C      0.312500000000     0.845600000000     0.456880000000    -0.0343622  
C86      C      0.329250000000     0.833750000000     0.568220000000    -0.118854   
C87      C      0.352450000000     0.883030000000     0.448110000000     0.0275435  
C88      C      0.350500000000     0.883410000000     0.567930000000     0.332152   
C89      C      0.379180000000     0.576450000000     0.560390000000    -0.0169743  
C90      C      0.413930000000     0.607270000000     0.457260000000    -0.0880964  
C91      C      0.335240000000     0.595980000000     0.536070000000     0.00793533 
C92      C      0.393240000000     0.651230000000     0.477830000000     0.318479   
C93      C      0.135380000000     0.638350000000     0.553750000000    -0.0273518  
C94      C      0.165140000000     0.613570000000     0.453980000000    -0.111336   
C95      C      0.118360000000     0.590290000000     0.573480000000     0.00578959 
C96      C      0.146210000000     0.564480000000     0.466690000000     0.331605   
C97      C      0.115620000000     0.892020000000     0.060560000000    -0.020061   
C98      C      0.075960000000     0.857460000000     0.963590000000    -0.100868   
C99      C      0.161610000000     0.875750000000     0.038230000000    -0.00469947 
C100     C      0.120240000000     0.835330000000     0.946880000000     0.321915   
C101     C      0.395210000000     0.848820000000     0.965180000000    -0.000153964
C102     C      0.366320000000     0.875200000000     0.071930000000    -0.0986501  
C103     C      0.347110000000     0.824930000000     0.954610000000    -0.0257745  
C104     C      0.318950000000     0.853360000000     0.053150000000     0.321028   
C105     C      0.371480000000     0.654170000000     0.969590000000    -0.0121917  
C106     C      0.317620000000     0.603800000000     0.040690000000    -0.0862396  
C107     C      0.389360000000     0.608800000000     0.950690000000     0.0047846  
C108     C      0.362980000000     0.584340000000     0.060820000000     0.315438   
C109     C      0.090100000000     0.623990000000     0.950650000000    -0.00370546 
C110     C      0.115970000000     0.600780000000     0.061620000000    -0.0993349  
C111     C      0.136870000000     0.652190000000     0.945430000000    -0.0215873  
C112     C      0.162550000000     0.624910000000     0.045290000000     0.322199   
C113     C      0.553430000000     0.429000000000     0.007170000000     0.382494   
C114     C      0.925890000000     0.048400000000     0.006790000000     0.40289    
C115     C      0.555440000000     0.056160000000     0.003940000000     0.419257   
C116     C      0.925260000000     0.420860000000     0.011680000000     0.419011   
C117     C      0.551150000000     0.403720000000     0.512930000000     0.412999   
C118     C      0.943050000000     0.040640000000     0.509950000000     0.389168   
C119     C      0.572050000000     0.030610000000     0.514450000000     0.435435   
C120     C      0.919420000000     0.416810000000     0.509150000000     0.431727   
C121     C      0.740910000000     0.241240000000     0.886370000000     0.496027   
C122     C      0.736790000000     0.239950000000     0.127810000000     0.496555   
C123     C      0.796920000000     0.179070000000     0.005650000000     0.441576   
C124     C      0.683180000000     0.301220000000     0.003170000000     0.464296   
C125     C      0.748330000000     0.223000000000     0.386430000000     0.468407   
C126     C      0.753580000000     0.224170000000     0.627830000000     0.466951   
C127     C      0.814390000000     0.171610000000     0.505350000000     0.46194    
C128     C      0.684030000000     0.277960000000     0.508790000000     0.438915   
C129     C      0.725270000000     0.189980000000     0.729870000000    -0.0153665  
C130     C      0.791900000000     0.251810000000     0.727800000000    -0.100121   
C131     C      0.704300000000     0.212990000000     0.785960000000    -0.00374271 
C132     C      0.770540000000     0.275290000000     0.783400000000     0.325827   
C133     C      0.788390000000     0.243120000000     0.284970000000    -0.0168431  
C134     C      0.711840000000     0.194030000000     0.285970000000    -0.1016     
C135     C      0.772180000000     0.269330000000     0.228460000000    -0.00356117 
C136     C      0.695300000000     0.221310000000     0.230500000000     0.330455   
C137     C      0.660850000000     0.353290000000     0.537200000000    -0.0173878  
C138     C      0.612350000000     0.301860000000     0.462210000000    -0.0957982  
C139     C      0.616230000000     0.369930000000     0.563520000000    -0.0054009  
C140     C      0.569750000000     0.327530000000     0.477970000000     0.315335   
C141     C      0.812500000000     0.345600000000     0.456880000000    -0.0343686  
C142     C      0.829250000000     0.333750000000     0.568220000000    -0.118883   
C143     C      0.852450000000     0.383030000000     0.448110000000     0.0275472  
C144     C      0.850500000000     0.383410000000     0.567930000000     0.332255   
C145     C      0.879180000000     0.076450000000     0.560390000000    -0.0169782  
C146     C      0.913930000000     0.107270000000     0.457260000000    -0.0881902  
C147     C      0.835240000000     0.095980000000     0.536070000000     0.00794591 
C148     C      0.893240000000     0.151230000000     0.477830000000     0.318575   
C149     C      0.635380000000     0.138350000000     0.553750000000    -0.0273837  
C150     C      0.665140000000     0.113570000000     0.453970000000    -0.111395   
C151     C      0.618360000000     0.090290000000     0.573480000000     0.00581018 
C152     C      0.646210000000     0.064480000000     0.466690000000     0.331647   
C153     C      0.615620000000     0.392020000000     0.060560000000    -0.0200455  
C154     C      0.575960000000     0.357460000000     0.963590000000    -0.100876   
C155     C      0.661610000000     0.375750000000     0.038230000000    -0.004702   
C156     C      0.620230000000     0.335330000000     0.946880000000     0.321758   
C157     C      0.895210000000     0.348820000000     0.965180000000    -0.000139801
C158     C      0.866320000000     0.375200000000     0.071930000000    -0.0986425  
C159     C      0.847110000000     0.324930000000     0.954610000000    -0.0257865  
C160     C      0.818950000000     0.353360000000     0.053150000000     0.321026   
C161     C      0.871470000000     0.154170000000     0.969590000000    -0.012115   
C162     C      0.817620000000     0.103800000000     0.040690000000    -0.0862368  
C163     C      0.889360000000     0.108800000000     0.950690000000     0.00474805 
C164     C      0.862980000000     0.084340000000     0.060820000000     0.31544    
C165     C      0.590100000000     0.123990000000     0.950650000000    -0.00368489 
C166     C      0.615970000000     0.100780000000     0.061620000000    -0.0992221  
C167     C      0.636870000000     0.152190000000     0.945430000000    -0.0215994  
C168     C      0.662560000000     0.124910000000     0.045290000000     0.322223   
C169     C      0.553440000000     0.929000000000     0.007170000000     0.382373   
C170     C      0.925900000000     0.548400000000     0.006790000000     0.403006   
C171     C      0.555440000000     0.556160000000     0.003940000000     0.419374   
C172     C      0.925260000000     0.920860000000     0.011680000000     0.418888   
C173     C      0.551150000000     0.903720000000     0.512930000000     0.412921   
C174     C      0.943050000000     0.540640000000     0.509950000000     0.389287   
C175     C      0.572050000000     0.530610000000     0.514450000000     0.435502   
C176     C      0.919410000000     0.916810000000     0.509150000000     0.431624   
C177     C      0.740910000000     0.741240000000     0.886370000000     0.496177   
C178     C      0.736780000000     0.739950000000     0.127810000000     0.496542   
C179     C      0.796920000000     0.679070000000     0.005650000000     0.441434   
C180     C      0.683180000000     0.801220000000     0.003170000000     0.464274   
C181     C      0.748330000000     0.723000000000     0.386430000000     0.468535   
C182     C      0.753580000000     0.724170000000     0.627830000000     0.466961   
C183     C      0.814390000000     0.671610000000     0.505350000000     0.461924   
C184     C      0.684030000000     0.777950000000     0.508790000000     0.439157   
C185     C      0.725270000000     0.689980000000     0.729870000000    -0.0153584  
C186     C      0.791900000000     0.751810000000     0.727800000000    -0.100121   
C187     C      0.704300000000     0.712990000000     0.785960000000    -0.00375457 
C188     C      0.770540000000     0.775290000000     0.783400000000     0.325834   
C189     C      0.788400000000     0.743120000000     0.284970000000    -0.0169233  
C190     C      0.711840000000     0.694030000000     0.285970000000    -0.101619   
C191     C      0.772180000000     0.769330000000     0.228460000000    -0.00352876 
C192     C      0.695300000000     0.721310000000     0.230500000000     0.330545   
C193     C      0.660850000000     0.853290000000     0.537200000000    -0.0173729  
C194     C      0.612350000000     0.801860000000     0.462210000000    -0.0957993  
C195     C      0.616230000000     0.869930000000     0.563520000000    -0.00541436 
C196     C      0.569750000000     0.827530000000     0.477970000000     0.31533    
C197     C      0.812500000000     0.845600000000     0.456880000000    -0.034371   
C198     C      0.829260000000     0.833750000000     0.568220000000    -0.118852   
C199     C      0.852450000000     0.883030000000     0.448110000000     0.0275533  
C200     C      0.850500000000     0.883410000000     0.567930000000     0.332159   
C201     C      0.879180000000     0.576450000000     0.560390000000    -0.0169706  
C202     C      0.913930000000     0.607270000000     0.457260000000    -0.088135   
C203     C      0.835240000000     0.595980000000     0.536070000000     0.007936   
C204     C      0.893240000000     0.651230000000     0.477830000000     0.318565   
C205     C      0.635380000000     0.638350000000     0.553750000000    -0.0273519  
C206     C      0.665140000000     0.613570000000     0.453980000000    -0.111389   
C207     C      0.618360000000     0.590290000000     0.573480000000     0.00579359 
C208     C      0.646210000000     0.564480000000     0.466690000000     0.331619   
C209     C      0.615620000000     0.892020000000     0.060560000000    -0.0200471  
C210     C      0.575960000000     0.857460000000     0.963590000000    -0.100813   
C211     C      0.661610000000     0.875750000000     0.038230000000    -0.00470926 
C212     C      0.620240000000     0.835330000000     0.946880000000     0.321889   
C213     C      0.895210000000     0.848820000000     0.965180000000    -0.000147191
C214     C      0.866320000000     0.875200000000     0.071930000000    -0.0986495  
C215     C      0.847110000000     0.824930000000     0.954610000000    -0.0257805  
C216     C      0.818950000000     0.853360000000     0.053150000000     0.321026   
C217     C      0.871480000000     0.654170000000     0.969590000000    -0.0121905  
C218     C      0.817620000000     0.603800000000     0.040690000000    -0.0862056  
C219     C      0.889360000000     0.608800000000     0.950690000000     0.00478483 
C220     C      0.862990000000     0.584340000000     0.060820000000     0.315512   
C221     C      0.590100000000     0.623990000000     0.950650000000    -0.00368867 
C222     C      0.615970000000     0.600780000000     0.061620000000    -0.0993175  
C223     C      0.636870000000     0.652190000000     0.945430000000    -0.021598   
C224     C      0.662550000000     0.624910000000     0.045290000000     0.322183   
Cu1      Cu     0.488990000000     0.987910000000     0.948730000000     0.856103   
Cu2      Cu     0.990710000000     0.489870000000     0.065810000000     0.884404   
Cu3      Cu     0.498030000000     0.972220000000     0.453240000000     0.868959   
Cu4      Cu     0.995760000000     0.472080000000     0.569610000000     0.852904   
Cu5      Cu     0.275320000000     0.271530000000     0.008880000000     1.15048    
Cu6      Cu     0.204000000000     0.208020000000     0.006630000000     1.14842    
Cu7      Cu     0.284000000000     0.260900000000     0.506340000000     1.12362    
Cu8      Cu     0.215550000000     0.189640000000     0.508600000000     1.14997    
Cu9      Cu     0.489000000000     0.487910000000     0.948730000000     0.856791   
Cu10     Cu     0.990710000000     0.989860000000     0.065810000000     0.883783   
Cu11     Cu     0.498030000000     0.472220000000     0.453240000000     0.869602   
Cu12     Cu     0.995760000000     0.972080000000     0.569610000000     0.852362   
Cu13     Cu     0.275320000000     0.771530000000     0.008880000000     1.15061    
Cu14     Cu     0.204000000000     0.708020000000     0.006630000000     1.14842    
Cu15     Cu     0.284000000000     0.760900000000     0.506340000000     1.12363    
Cu16     Cu     0.215550000000     0.689640000000     0.508600000000     1.15       
Cu17     Cu     0.988990000000     0.987910000000     0.948730000000     0.855289   
Cu18     Cu     0.490710000000     0.489870000000     0.065810000000     0.885224   
Cu19     Cu     0.998030000000     0.972220000000     0.453240000000     0.868191   
Cu20     Cu     0.495760000000     0.472080000000     0.569610000000     0.853716   
Cu21     Cu     0.775320000000     0.271530000000     0.008880000000     1.15049    
Cu22     Cu     0.704000000000     0.208020000000     0.006630000000     1.14841    
Cu23     Cu     0.784000000000     0.260900000000     0.506340000000     1.12356    
Cu24     Cu     0.715560000000     0.189640000000     0.508600000000     1.14994    
Cu25     Cu     0.989000000000     0.487910000000     0.948730000000     0.855977   
Cu26     Cu     0.490700000000     0.989860000000     0.065810000000     0.884606   
Cu27     Cu     0.998030000000     0.472220000000     0.453240000000     0.868792   
Cu28     Cu     0.495760000000     0.972080000000     0.569610000000     0.853183   
Cu29     Cu     0.775320000000     0.771530000000     0.008880000000     1.15053    
Cu30     Cu     0.704010000000     0.708020000000     0.006630000000     1.14833    
Cu31     Cu     0.784000000000     0.760900000000     0.506340000000     1.12355    
Cu32     Cu     0.715550000000     0.689640000000     0.508600000000     1.15002    
F1       F      0.306160000000     0.298060000000     0.818570000000    -0.444713   
F2       F      0.163590000000     0.193320000000     0.195160000000    -0.398639   
F3       F      0.046390000000     0.334790000000     0.422370000000    -0.420611   
F4       F      0.315390000000     0.411090000000     0.572060000000    -0.443819   
F5       F      0.422640000000     0.174660000000     0.521260000000    -0.424298   
F6       F      0.130510000000     0.044590000000     0.410160000000    -0.423838   
F7       F      0.107160000000     0.292460000000     0.922390000000    -0.43359    
F8       F      0.293630000000     0.341680000000     0.107200000000    -0.451373   
F9       F      0.386330000000     0.112940000000     0.104960000000    -0.420908   
F10      F      0.186060000000     0.136990000000     0.100640000000    -0.416681   
F11      F      0.306160000000     0.798060000000     0.818570000000    -0.444727   
F12      F      0.163590000000     0.693320000000     0.195160000000    -0.398649   
F13      F      0.046390000000     0.834790000000     0.422370000000    -0.420621   
F14      F      0.315390000000     0.911100000000     0.572060000000    -0.443835   
F15      F      0.422640000000     0.674670000000     0.521260000000    -0.424259   
F16      F      0.130510000000     0.544590000000     0.410160000000    -0.423916   
F17      F      0.107160000000     0.792470000000     0.922390000000    -0.433668   
F18      F      0.293630000000     0.841680000000     0.107200000000    -0.451393   
F19      F      0.386330000000     0.612940000000     0.104960000000    -0.420933   
F20      F      0.186060000000     0.636990000000     0.100640000000    -0.4167     
F21      F      0.806160000000     0.298060000000     0.818570000000    -0.444729   
F22      F      0.663580000000     0.193320000000     0.195160000000    -0.398628   
F23      F      0.546390000000     0.334790000000     0.422370000000    -0.420739   
F24      F      0.815390000000     0.411090000000     0.572060000000    -0.443817   
F25      F      0.922640000000     0.174660000000     0.521260000000    -0.424394   
F26      F      0.630510000000     0.044590000000     0.410160000000    -0.423885   
F27      F      0.607160000000     0.292460000000     0.922390000000    -0.433656   
F28      F      0.793630000000     0.341680000000     0.107200000000    -0.45138    
F29      F      0.886330000000     0.112940000000     0.104960000000    -0.420966   
F30      F      0.686060000000     0.136990000000     0.100640000000    -0.416715   
F31      F      0.806160000000     0.798060000000     0.818570000000    -0.444743   
F32      F      0.663590000000     0.693320000000     0.195160000000    -0.398684   
F33      F      0.546390000000     0.834790000000     0.422370000000    -0.420748   
F34      F      0.815390000000     0.911100000000     0.572060000000    -0.443839   
F35      F      0.922630000000     0.674670000000     0.521260000000    -0.424398   
F36      F      0.630510000000     0.544590000000     0.410160000000    -0.423966   
F37      F      0.607160000000     0.792470000000     0.922390000000    -0.43372    
F38      F      0.793630000000     0.841680000000     0.107200000000    -0.4514     
F39      F      0.886330000000     0.612940000000     0.104960000000    -0.421027   
F40      F      0.686060000000     0.636990000000     0.100640000000    -0.416701   
H1       H      0.317200000000     0.229990000000     0.746990000000     0.0887478  
H2       H      0.246300000000     0.164070000000     0.748810000000     0.0452592  
H3       H      0.184960000000     0.186460000000     0.815930000000     0.0466472  
H4       H      0.311240000000     0.278100000000     0.697430000000     0.0893256  
H5       H      0.249150000000     0.300680000000     0.763800000000    -3.95657e-05
H6       H      0.196770000000     0.171960000000     0.701170000000     0.046287   
H7       H      0.178690000000     0.234620000000     0.767150000000     0.0498728  
H8       H      0.226110000000     0.163730000000     0.266690000000     0.10624    
H9       H      0.308260000000     0.216150000000     0.266490000000     0.0607845  
H10      H      0.302880000000     0.281120000000     0.198880000000     0.0813738  
H11      H      0.181480000000     0.182070000000     0.316170000000     0.0993116  
H12      H      0.177150000000     0.249060000000     0.250380000000     0.00380204 
H13      H      0.312580000000     0.266390000000     0.314070000000     0.0560644  
H14      H      0.257950000000     0.299930000000     0.246810000000     0.0589925  
H15      H      0.126220000000     0.314050000000     0.415410000000     0.09685    
H16      H      0.176060000000     0.377770000000     0.500920000000     0.0623556  
H17      H      0.125100000000     0.404320000000     0.584090000000     0.051032   
H18      H      0.100150000000     0.265230000000     0.455930000000     0.0893184  
H19      H      0.045760000000     0.304480000000     0.507670000000     0.00866258 
H20      H      0.186470000000     0.352770000000     0.576270000000     0.056164   
H21      H      0.102450000000     0.346770000000     0.602200000000     0.0494397  
H22      H      0.294410000000     0.331270000000     0.590550000000     0.0898435  
H23      H      0.280620000000     0.360240000000     0.471660000000     0.0702198  
H24      H      0.339190000000     0.413900000000     0.429010000000     0.0536849  
H25      H      0.351520000000     0.313990000000     0.597470000000     0.0791028  
H26      H      0.372460000000     0.389720000000     0.610830000000     0.00420842 
H27      H      0.305480000000     0.328660000000     0.410700000000     0.0482694  
H28      H      0.377170000000     0.371810000000     0.412780000000     0.0536188  
H29      H      0.449870000000     0.116310000000     0.439440000000     0.0942475  
H30      H      0.395190000000     0.098480000000     0.598900000000     0.0753997  
H31      H      0.310780000000     0.097980000000     0.576230000000     0.0474513  
H32      H      0.393150000000     0.091380000000     0.417230000000     0.0705474  
H33      H      0.391360000000     0.173410000000     0.435740000000     0.00547582 
H34      H      0.368790000000     0.042360000000     0.581150000000     0.0597446  
H35      H      0.317500000000     0.072320000000     0.500620000000     0.0497497  
H36      H      0.139640000000     0.131120000000     0.426870000000     0.0945538  
H37      H      0.107880000000     0.153850000000     0.527700000000     0.0542611  
H38      H      0.086620000000     0.091170000000     0.602750000000     0.0481893  
H39      H      0.197220000000     0.113760000000     0.425360000000     0.0858656  
H40      H      0.175240000000     0.046440000000     0.483940000000    -0.00123676 
H41      H      0.144310000000     0.158810000000     0.596740000000     0.044072   
H42      H      0.145260000000     0.076900000000     0.603270000000     0.0421311  
H43      H      0.051050000000     0.331300000000     0.986830000000     0.09499    
H44      H      0.098570000000     0.366820000000     0.094620000000     0.0629689  
H45      H      0.183310000000     0.370460000000     0.080380000000     0.0643521  
H46      H      0.059190000000     0.366880000000     0.918950000000     0.0860957  
H47      H      0.138500000000     0.355980000000     0.908570000000    -0.0015252  
H48      H      0.123470000000     0.424810000000     0.085960000000     0.0554779  
H49      H      0.180710000000     0.402850000000     0.008850000000     0.0490884  
H50      H      0.383120000000     0.351990000000     0.103540000000     0.0953046  
H51      H      0.418040000000     0.323610000000     0.981560000000     0.0499946  
H52      H      0.350270000000     0.293500000000     0.927420000000     0.0763241  
H53      H      0.362530000000     0.406950000000     0.098430000000     0.0909571  
H54      H      0.300340000000     0.377340000000     0.025170000000    -0.00614964 
H55      H      0.409280000000     0.362700000000     0.919300000000     0.05674    
H56      H      0.325840000000     0.346850000000     0.927090000000     0.0750859  
H57      H      0.296430000000     0.108760000000     0.083450000000     0.10345    
H58      H      0.398010000000     0.174130000000     0.999440000000     0.0783697  
H59      H      0.423230000000     0.116190000000     0.925960000000     0.047993   
H60      H      0.296780000000     0.078590000000     0.010210000000     0.0642313  
H61      H      0.353600000000     0.050920000000     0.084000000000     0.00236318 
H62      H      0.367110000000     0.174430000000     0.926180000000     0.0493622  
H63      H      0.364620000000     0.090610000000     0.916610000000     0.0429347  
H64      H      0.097280000000     0.122360000000     0.093430000000     0.120602   
H65      H      0.063140000000     0.146950000000     0.959360000000     0.0584932  
H66      H      0.132310000000     0.183270000000     0.918130000000     0.0624352  
H67      H      0.120960000000     0.069050000000     0.087510000000     0.0974385  
H68      H      0.183160000000     0.102300000000     0.017820000000    -0.00913072 
H69      H      0.081760000000     0.106880000000     0.904540000000     0.0478376  
H70      H      0.161720000000     0.132990000000     0.919670000000     0.0412488  
H71      H      0.317200000000     0.729990000000     0.746990000000     0.0887432  
H72      H      0.246300000000     0.664070000000     0.748810000000     0.0452372  
H73      H      0.184960000000     0.686460000000     0.815930000000     0.0466364  
H74      H      0.311240000000     0.778100000000     0.697430000000     0.0893207  
H75      H      0.249150000000     0.800680000000     0.763800000000    -5.608e-05  
H76      H      0.196770000000     0.671960000000     0.701170000000     0.0462712  
H77      H      0.178690000000     0.734610000000     0.767150000000     0.049868   
H78      H      0.226110000000     0.663730000000     0.266690000000     0.106217   
H79      H      0.308260000000     0.716150000000     0.266490000000     0.0607748  
H80      H      0.302880000000     0.781120000000     0.198880000000     0.0813683  
H81      H      0.181480000000     0.682070000000     0.316170000000     0.0992993  
H82      H      0.177150000000     0.749060000000     0.250380000000     0.00379743 
H83      H      0.312580000000     0.766390000000     0.314070000000     0.0560575  
H84      H      0.257950000000     0.799930000000     0.246810000000     0.0589787  
H85      H      0.126220000000     0.814050000000     0.415410000000     0.0968397  
H86      H      0.176060000000     0.877770000000     0.500920000000     0.0623161  
H87      H      0.125100000000     0.904320000000     0.584090000000     0.0509751  
H88      H      0.100150000000     0.765230000000     0.455930000000     0.0893201  
H89      H      0.045760000000     0.804480000000     0.507670000000     0.00866611 
H90      H      0.186470000000     0.852770000000     0.576270000000     0.0561446  
H91      H      0.102450000000     0.846770000000     0.602200000000     0.0494307  
H92      H      0.294410000000     0.831270000000     0.590550000000     0.0898198  
H93      H      0.280620000000     0.860240000000     0.471660000000     0.070197   
H94      H      0.339190000000     0.913900000000     0.429010000000     0.0536257  
H95      H      0.351520000000     0.813990000000     0.597470000000     0.0790972  
H96      H      0.372460000000     0.889710000000     0.610830000000     0.00419083 
H97      H      0.305480000000     0.828660000000     0.410700000000     0.0482617  
H98      H      0.377170000000     0.871810000000     0.412780000000     0.0536068  
H99      H      0.449880000000     0.616310000000     0.439440000000     0.0942006  
H100     H      0.395190000000     0.598490000000     0.598900000000     0.0753773  
H101     H      0.310780000000     0.597980000000     0.576230000000     0.0474205  
H102     H      0.393150000000     0.591380000000     0.417230000000     0.0704822  
H103     H      0.391360000000     0.673410000000     0.435740000000     0.00550069 
H104     H      0.368790000000     0.542360000000     0.581150000000     0.0596577  
H105     H      0.317500000000     0.572320000000     0.500620000000     0.0496945  
H106     H      0.139640000000     0.631120000000     0.426870000000     0.0945182  
H107     H      0.107880000000     0.653850000000     0.527700000000     0.0542595  
H108     H      0.086620000000     0.591170000000     0.602750000000     0.0481587  
H109     H      0.197220000000     0.613760000000     0.425360000000     0.0858074  
H110     H      0.175240000000     0.546430000000     0.483940000000    -0.00126772 
H111     H      0.144310000000     0.658810000000     0.596740000000     0.0440663  
H112     H      0.145260000000     0.576900000000     0.603270000000     0.0420794  
H113     H      0.051050000000     0.831300000000     0.986830000000     0.095006   
H114     H      0.098570000000     0.866820000000     0.094620000000     0.0629592  
H115     H      0.183310000000     0.870460000000     0.080380000000     0.0643255  
H116     H      0.059190000000     0.866880000000     0.918950000000     0.0860979  
H117     H      0.138500000000     0.855980000000     0.908570000000    -0.00158113 
H118     H      0.123470000000     0.924810000000     0.085960000000     0.055418   
H119     H      0.180710000000     0.902850000000     0.008850000000     0.0490344  
H120     H      0.383120000000     0.851990000000     0.103540000000     0.0953029  
H121     H      0.418040000000     0.823610000000     0.981560000000     0.0499977  
H122     H      0.350270000000     0.793500000000     0.927420000000     0.0763293  
H123     H      0.362530000000     0.906950000000     0.098430000000     0.0909042  
H124     H      0.300340000000     0.877340000000     0.025170000000    -0.0061888  
H125     H      0.409280000000     0.862700000000     0.919300000000     0.0567274  
H126     H      0.325840000000     0.846850000000     0.927090000000     0.0750613  
H127     H      0.296430000000     0.608760000000     0.083450000000     0.103426   
H128     H      0.398010000000     0.674130000000     0.999440000000     0.0783908  
H129     H      0.423230000000     0.616190000000     0.925960000000     0.0479669  
H130     H      0.296780000000     0.578590000000     0.010210000000     0.0641814  
H131     H      0.353600000000     0.550920000000     0.084000000000     0.00228592 
H132     H      0.367110000000     0.674430000000     0.926180000000     0.0493767  
H133     H      0.364620000000     0.590610000000     0.916610000000     0.0428837  
H134     H      0.097280000000     0.622360000000     0.093430000000     0.120585   
H135     H      0.063140000000     0.646950000000     0.959360000000     0.0584843  
H136     H      0.132310000000     0.683270000000     0.918130000000     0.0624296  
H137     H      0.120960000000     0.569050000000     0.087510000000     0.0973685  
H138     H      0.183160000000     0.602300000000     0.017820000000    -0.00916682 
H139     H      0.081760000000     0.606880000000     0.904540000000     0.0478036  
H140     H      0.161720000000     0.632990000000     0.919670000000     0.0412264  
H141     H      0.817200000000     0.229990000000     0.746990000000     0.0887232  
H142     H      0.746300000000     0.164070000000     0.748810000000     0.0452519  
H143     H      0.684960000000     0.186460000000     0.815930000000     0.0466304  
H144     H      0.811240000000     0.278100000000     0.697430000000     0.0893084  
H145     H      0.749150000000     0.300680000000     0.763800000000    -4.56706e-05
H146     H      0.696770000000     0.171960000000     0.701170000000     0.0462737  
H147     H      0.678690000000     0.234620000000     0.767150000000     0.0498481  
H148     H      0.726110000000     0.163730000000     0.266690000000     0.10622    
H149     H      0.808260000000     0.216150000000     0.266490000000     0.0607633  
H150     H      0.802880000000     0.281120000000     0.198880000000     0.0813561  
H151     H      0.681480000000     0.182070000000     0.316170000000     0.0992841  
H152     H      0.677150000000     0.249060000000     0.250380000000     0.00380472 
H153     H      0.812580000000     0.266390000000     0.314070000000     0.056044   
H154     H      0.757940000000     0.299930000000     0.246810000000     0.0589839  
H155     H      0.626220000000     0.314050000000     0.415410000000     0.0968282  
H156     H      0.676060000000     0.377770000000     0.500920000000     0.0623543  
H157     H      0.625100000000     0.404320000000     0.584090000000     0.0510134  
H158     H      0.600150000000     0.265230000000     0.455930000000     0.0892673  
H159     H      0.545760000000     0.304480000000     0.507670000000     0.00855116 
H160     H      0.686470000000     0.352770000000     0.576270000000     0.0561594  
H161     H      0.602460000000     0.346770000000     0.602200000000     0.049385   
H162     H      0.794410000000     0.331270000000     0.590550000000     0.0898433  
H163     H      0.780620000000     0.360240000000     0.471660000000     0.0702222  
H164     H      0.839190000000     0.413900000000     0.429010000000     0.0536808  
H165     H      0.851520000000     0.313990000000     0.597470000000     0.0790707  
H166     H      0.872460000000     0.389720000000     0.610830000000     0.004183   
H167     H      0.805480000000     0.328660000000     0.410700000000     0.0482624  
H168     H      0.877170000000     0.371810000000     0.412780000000     0.053576   
H169     H      0.949870000000     0.116310000000     0.439440000000     0.0941519  
H170     H      0.895190000000     0.098480000000     0.598900000000     0.0753547  
H171     H      0.810780000000     0.097980000000     0.576230000000     0.0474476  
H172     H      0.893150000000     0.091380000000     0.417230000000     0.0705233  
H173     H      0.891360000000     0.173410000000     0.435740000000     0.00543211 
H174     H      0.868790000000     0.042360000000     0.581150000000     0.0597356  
H175     H      0.817500000000     0.072320000000     0.500620000000     0.0497503  
H176     H      0.639640000000     0.131120000000     0.426870000000     0.0945157  
H177     H      0.607880000000     0.153850000000     0.527700000000     0.0542088  
H178     H      0.586610000000     0.091170000000     0.602750000000     0.0481016  
H179     H      0.697220000000     0.113760000000     0.425360000000     0.0858639  
H180     H      0.675240000000     0.046440000000     0.483940000000    -0.00123648 
H181     H      0.644310000000     0.158810000000     0.596740000000     0.0440643  
H182     H      0.645260000000     0.076900000000     0.603270000000     0.0421111  
H183     H      0.551050000000     0.331300000000     0.986830000000     0.094887   
H184     H      0.598570000000     0.366820000000     0.094620000000     0.0629078  
H185     H      0.683320000000     0.370460000000     0.080380000000     0.0643444  
H186     H      0.559190000000     0.366880000000     0.918950000000     0.0860143  
H187     H      0.638500000000     0.355980000000     0.908570000000    -0.00151918 
H188     H      0.623470000000     0.424810000000     0.085960000000     0.0554549  
H189     H      0.680710000000     0.402850000000     0.008850000000     0.0490848  
H190     H      0.883120000000     0.351990000000     0.103540000000     0.0952633  
H191     H      0.918040000000     0.323610000000     0.981560000000     0.0499062  
H192     H      0.850270000000     0.293500000000     0.927420000000     0.0763067  
H193     H      0.862530000000     0.406950000000     0.098430000000     0.090948   
H194     H      0.800340000000     0.377340000000     0.025170000000    -0.00614935 
H195     H      0.909280000000     0.362700000000     0.919300000000     0.0566747  
H196     H      0.825840000000     0.346850000000     0.927090000000     0.0750853  
H197     H      0.796430000000     0.108760000000     0.083450000000     0.103445   
H198     H      0.898010000000     0.174130000000     0.999440000000     0.0783082  
H199     H      0.923230000000     0.116190000000     0.925960000000     0.0479109  
H200     H      0.796780000000     0.078590000000     0.010210000000     0.0642315  
H201     H      0.853590000000     0.050920000000     0.084000000000     0.00234926 
H202     H      0.867110000000     0.174430000000     0.926180000000     0.04933    
H203     H      0.864620000000     0.090610000000     0.916610000000     0.042919   
H204     H      0.597270000000     0.122360000000     0.093430000000     0.120502   
H205     H      0.563140000000     0.146950000000     0.959360000000     0.0583834  
H206     H      0.632310000000     0.183270000000     0.918130000000     0.0624115  
H207     H      0.620960000000     0.069050000000     0.087510000000     0.0973841  
H208     H      0.683160000000     0.102300000000     0.017820000000    -0.00917332 
H209     H      0.581760000000     0.106880000000     0.904540000000     0.0477654  
H210     H      0.661720000000     0.132990000000     0.919670000000     0.0412447  
H211     H      0.817200000000     0.729990000000     0.746990000000     0.0887187  
H212     H      0.746300000000     0.664070000000     0.748810000000     0.0452299  
H213     H      0.684960000000     0.686460000000     0.815930000000     0.046621   
H214     H      0.811240000000     0.778100000000     0.697430000000     0.0893029  
H215     H      0.749150000000     0.800680000000     0.763800000000    -6.22023e-05
H216     H      0.696770000000     0.671960000000     0.701170000000     0.0462568  
H217     H      0.678690000000     0.734610000000     0.767150000000     0.0498436  
H218     H      0.726110000000     0.663730000000     0.266690000000     0.106209   
H219     H      0.808260000000     0.716150000000     0.266490000000     0.0607826  
H220     H      0.802880000000     0.781120000000     0.198880000000     0.0813448  
H221     H      0.681480000000     0.682070000000     0.316170000000     0.0992754  
H222     H      0.677150000000     0.749060000000     0.250380000000     0.00377213 
H223     H      0.812580000000     0.766390000000     0.314070000000     0.0560634  
H224     H      0.757950000000     0.799930000000     0.246810000000     0.0589618  
H225     H      0.626220000000     0.814050000000     0.415410000000     0.0968149  
H226     H      0.676060000000     0.877770000000     0.500920000000     0.0623122  
H227     H      0.625090000000     0.904320000000     0.584090000000     0.0509564  
H228     H      0.600150000000     0.765230000000     0.455930000000     0.0892665  
H229     H      0.545760000000     0.804480000000     0.507670000000     0.00855587 
H230     H      0.686470000000     0.852770000000     0.576270000000     0.0561387  
H231     H      0.602450000000     0.846770000000     0.602200000000     0.0493778  
H232     H      0.794410000000     0.831270000000     0.590550000000     0.0897962  
H233     H      0.780620000000     0.860240000000     0.471660000000     0.0701964  
H234     H      0.839190000000     0.913900000000     0.429010000000     0.0536153  
H235     H      0.851520000000     0.813990000000     0.597470000000     0.0790791  
H236     H      0.872460000000     0.889710000000     0.610830000000     0.00415916 
H237     H      0.805480000000     0.828660000000     0.410700000000     0.0482541  
H238     H      0.877170000000     0.871810000000     0.412780000000     0.053561   
H239     H      0.949880000000     0.616310000000     0.439440000000     0.0941054  
H240     H      0.895190000000     0.598490000000     0.598900000000     0.0753324  
H241     H      0.810780000000     0.597980000000     0.576230000000     0.0474159  
H242     H      0.893150000000     0.591380000000     0.417230000000     0.0704681  
H243     H      0.891360000000     0.673410000000     0.435740000000     0.00543682 
H244     H      0.868790000000     0.542360000000     0.581150000000     0.0596552  
H245     H      0.817500000000     0.572320000000     0.500620000000     0.0496948  
H246     H      0.639640000000     0.631120000000     0.426870000000     0.0944906  
H247     H      0.607880000000     0.653850000000     0.527700000000     0.0541999  
H248     H      0.586620000000     0.591170000000     0.602750000000     0.0480777  
H249     H      0.697210000000     0.613760000000     0.425360000000     0.0858308  
H250     H      0.675240000000     0.546430000000     0.483940000000    -0.00127328 
H251     H      0.644310000000     0.658810000000     0.596740000000     0.0440415  
H252     H      0.645260000000     0.576900000000     0.603270000000     0.0420633  
H253     H      0.551050000000     0.831300000000     0.986830000000     0.0948815  
H254     H      0.598570000000     0.866820000000     0.094620000000     0.0628964  
H255     H      0.683310000000     0.870460000000     0.080380000000     0.0643189  
H256     H      0.559180000000     0.866880000000     0.918950000000     0.0859859  
H257     H      0.638500000000     0.855980000000     0.908570000000    -0.00159074 
H258     H      0.623470000000     0.924810000000     0.085960000000     0.0553895  
H259     H      0.680710000000     0.902850000000     0.008850000000     0.0490344  
H260     H      0.883120000000     0.851990000000     0.103540000000     0.0952557  
H261     H      0.918040000000     0.823610000000     0.981560000000     0.0499104  
H262     H      0.850270000000     0.793500000000     0.927420000000     0.0763107  
H263     H      0.862530000000     0.906950000000     0.098430000000     0.090893   
H264     H      0.800340000000     0.877340000000     0.025170000000    -0.00618589 
H265     H      0.909280000000     0.862700000000     0.919300000000     0.056666   
H266     H      0.825840000000     0.846850000000     0.927090000000     0.0750599  
H267     H      0.796430000000     0.608760000000     0.083450000000     0.103416   
H268     H      0.898010000000     0.674130000000     0.999440000000     0.078327   
H269     H      0.923230000000     0.616190000000     0.925960000000     0.047883   
H270     H      0.796780000000     0.578590000000     0.010210000000     0.0641755  
H271     H      0.853600000000     0.550920000000     0.084000000000     0.00226322 
H272     H      0.867110000000     0.674430000000     0.926180000000     0.0493445  
H273     H      0.864620000000     0.590610000000     0.916610000000     0.04287    
H274     H      0.597280000000     0.622360000000     0.093430000000     0.120519   
H275     H      0.563140000000     0.646950000000     0.959360000000     0.0583792  
H276     H      0.632310000000     0.683270000000     0.918130000000     0.0624137  
H277     H      0.620960000000     0.569050000000     0.087510000000     0.0973385  
H278     H      0.683160000000     0.602300000000     0.017820000000    -0.0091632  
H279     H      0.581760000000     0.606880000000     0.904540000000     0.047734   
H280     H      0.661720000000     0.632990000000     0.919670000000     0.0412229  
N1       N      0.240310000000     0.241980000000     0.821350000000    -0.204719   
N2       N      0.255750000000     0.223160000000     0.692610000000    -0.16643    
N3       N      0.235410000000     0.241600000000     0.192780000000    -0.193691   
N4       N      0.248570000000     0.221600000000     0.321620000000    -0.165271   
N5       N      0.080760000000     0.370310000000     0.513770000000    -0.182681   
N6       N      0.151090000000     0.308160000000     0.508030000000    -0.158139   
N7       N      0.376250000000     0.393720000000     0.508680000000    -0.193278   
N8       N      0.325800000000     0.313540000000     0.504520000000    -0.198061   
N9       N      0.346710000000     0.140930000000     0.506430000000    -0.195399   
N10      N      0.413560000000     0.073980000000     0.509360000000    -0.136763   
N11      N      0.110150000000     0.061710000000     0.516560000000    -0.19806    
N12      N      0.176150000000     0.136550000000     0.514100000000    -0.219469   
N13      N      0.153090000000     0.334000000000     0.000280000000    -0.193518   
N14      N      0.083950000000     0.396560000000     0.007040000000    -0.14856    
N15      N      0.325860000000     0.313350000000     0.015890000000    -0.257157   
N16      N      0.394360000000     0.383770000000     0.014390000000    -0.162822   
N17      N      0.393870000000     0.079390000000     0.006230000000    -0.185657   
N18      N      0.327440000000     0.146700000000     0.005180000000    -0.147114   
N19      N      0.154180000000     0.164700000000     0.008640000000    -0.248769   
N20      N      0.088870000000     0.091340000000     0.003350000000    -0.160549   
N21      N      0.240310000000     0.741980000000     0.821350000000    -0.204748   
N22      N      0.255750000000     0.723160000000     0.692610000000    -0.166432   
N23      N      0.235410000000     0.741600000000     0.192780000000    -0.193693   
N24      N      0.248570000000     0.721600000000     0.321620000000    -0.165299   
N25      N      0.080760000000     0.870310000000     0.513770000000    -0.182685   
N26      N      0.151090000000     0.808160000000     0.508030000000    -0.15811    
N27      N      0.376250000000     0.893720000000     0.508680000000    -0.193265   
N28      N      0.325800000000     0.813540000000     0.504520000000    -0.198063   
N29      N      0.346710000000     0.640930000000     0.506430000000    -0.195391   
N30      N      0.413570000000     0.573980000000     0.509360000000    -0.136839   
N31      N      0.110150000000     0.561710000000     0.516560000000    -0.19809    
N32      N      0.176150000000     0.636550000000     0.514100000000    -0.219481   
N33      N      0.153090000000     0.834000000000     0.000280000000    -0.193546   
N34      N      0.083950000000     0.896560000000     0.007040000000    -0.14856    
N35      N      0.325860000000     0.813350000000     0.015890000000    -0.257168   
N36      N      0.394360000000     0.883760000000     0.014390000000    -0.162787   
N37      N      0.393870000000     0.579390000000     0.006230000000    -0.185691   
N38      N      0.327440000000     0.646700000000     0.005180000000    -0.147082   
N39      N      0.154180000000     0.664700000000     0.008640000000    -0.248768   
N40      N      0.088870000000     0.591340000000     0.003350000000    -0.160589   
N41      N      0.740310000000     0.241980000000     0.821350000000    -0.204721   
N42      N      0.755750000000     0.223160000000     0.692610000000    -0.166431   
N43      N      0.735410000000     0.241600000000     0.192780000000    -0.193687   
N44      N      0.748570000000     0.221600000000     0.321620000000    -0.165275   
N45      N      0.580760000000     0.370310000000     0.513770000000    -0.182721   
N46      N      0.651090000000     0.308160000000     0.508030000000    -0.158139   
N47      N      0.876250000000     0.393720000000     0.508680000000    -0.193277   
N48      N      0.825800000000     0.313540000000     0.504520000000    -0.198067   
N49      N      0.846710000000     0.140930000000     0.506430000000    -0.195405   
N50      N      0.913560000000     0.073980000000     0.509360000000    -0.136766   
N51      N      0.610150000000     0.061710000000     0.516560000000    -0.198105   
N52      N      0.676160000000     0.136550000000     0.514100000000    -0.219454   
N53      N      0.653090000000     0.334000000000     0.000280000000    -0.193502   
N54      N      0.583950000000     0.396560000000     0.007040000000    -0.148568   
N55      N      0.825860000000     0.313350000000     0.015890000000    -0.257162   
N56      N      0.894370000000     0.383770000000     0.014390000000    -0.162866   
N57      N      0.893870000000     0.079390000000     0.006230000000    -0.185691   
N58      N      0.827440000000     0.146700000000     0.005180000000    -0.147118   
N59      N      0.654180000000     0.164700000000     0.008640000000    -0.248769   
N60      N      0.588870000000     0.091340000000     0.003350000000    -0.160611   
N61      N      0.740310000000     0.741980000000     0.821350000000    -0.204748   
N62      N      0.755750000000     0.723160000000     0.692610000000    -0.166435   
N63      N      0.735410000000     0.741600000000     0.192780000000    -0.193697   
N64      N      0.748570000000     0.721600000000     0.321620000000    -0.165287   
N65      N      0.580760000000     0.870310000000     0.513770000000    -0.182724   
N66      N      0.651090000000     0.808160000000     0.508030000000    -0.15814    
N67      N      0.876250000000     0.893720000000     0.508680000000    -0.19331    
N68      N      0.825800000000     0.813540000000     0.504520000000    -0.198069   
N69      N      0.846710000000     0.640930000000     0.506430000000    -0.195401   
N70      N      0.913570000000     0.573980000000     0.509360000000    -0.136844   
N71      N      0.610150000000     0.561710000000     0.516560000000    -0.198132   
N72      N      0.676150000000     0.636550000000     0.514100000000    -0.219477   
N73      N      0.653090000000     0.834000000000     0.000280000000    -0.193542   
N74      N      0.583950000000     0.896560000000     0.007040000000    -0.148607   
N75      N      0.825860000000     0.813350000000     0.015890000000    -0.257163   
N76      N      0.894360000000     0.883760000000     0.014390000000    -0.16279    
N77      N      0.893870000000     0.579390000000     0.006230000000    -0.185735   
N78      N      0.827440000000     0.646700000000     0.005180000000    -0.147092   
N79      N      0.654180000000     0.664700000000     0.008640000000    -0.248703   
N80      N      0.588870000000     0.591340000000     0.003350000000    -0.160637   
O1       O      0.036340000000     0.441470000000     0.954640000000    -0.378857   
O2       O      0.441560000000     0.034330000000     0.954210000000    -0.383732   
O3       O      0.039330000000     0.039540000000     0.951600000000    -0.408137   
O4       O      0.439230000000     0.436340000000     0.957720000000    -0.408336   
O5       O      0.440970000000     0.438540000000     0.063470000000    -0.412095   
O6       O      0.040370000000     0.040760000000     0.057360000000    -0.406386   
O7       O      0.440500000000     0.033780000000     0.059740000000    -0.359619   
O8       O      0.040720000000     0.445700000000     0.059850000000    -0.375262   
O9       O      0.034630000000     0.416570000000     0.460180000000    -0.331725   
O10      O      0.461090000000     0.027900000000     0.458090000000    -0.369041   
O11      O      0.057790000000     0.013440000000     0.461460000000    -0.354792   
O12      O      0.437780000000     0.431450000000     0.456850000000    -0.395715   
O13      O      0.439950000000     0.425820000000     0.562040000000    -0.399443   
O14      O      0.050430000000     0.019560000000     0.565910000000    -0.409556   
O15      O      0.451660000000     0.021290000000     0.562470000000    -0.37461    
O16      O      0.040730000000     0.422900000000     0.564920000000    -0.381899   
O17      O      0.264660000000     0.272170000000     0.917610000000    -0.433067   
O18      O      0.272780000000     0.256270000000     0.098230000000    -0.431803   
O19      O      0.310930000000     0.220170000000     0.992770000000    -0.435874   
O20      O      0.225490000000     0.311540000000     0.018990000000    -0.424244   
O21      O      0.169300000000     0.260090000000     0.989720000000    -0.398947   
O22      O      0.254260000000     0.168570000000     0.019110000000    -0.417623   
O23      O      0.202070000000     0.223060000000     0.096120000000    -0.388189   
O24      O      0.216810000000     0.209820000000     0.916220000000    -0.474136   
O25      O      0.277390000000     0.250580000000     0.415810000000    -0.467708   
O26      O      0.285030000000     0.247340000000     0.596310000000    -0.463643   
O27      O      0.326850000000     0.214050000000     0.499330000000    -0.411924   
O28      O      0.227030000000     0.292310000000     0.515450000000    -0.449616   
O29      O      0.172140000000     0.235590000000     0.501470000000    -0.441775   
O30      O      0.271400000000     0.157590000000     0.511600000000    -0.4568     
O31      O      0.220340000000     0.201600000000     0.598830000000    -0.473009   
O32      O      0.219500000000     0.196310000000     0.417460000000    -0.469319   
O33      O      0.036340000000     0.941470000000     0.954640000000    -0.378783   
O34      O      0.441560000000     0.534330000000     0.954210000000    -0.383968   
O35      O      0.039330000000     0.539540000000     0.951600000000    -0.408495   
O36      O      0.439230000000     0.936330000000     0.957720000000    -0.408318   
O37      O      0.440970000000     0.938540000000     0.063470000000    -0.412147   
O38      O      0.040370000000     0.540760000000     0.057360000000    -0.40674    
O39      O      0.440500000000     0.533780000000     0.059740000000    -0.359888   
O40      O      0.040720000000     0.945700000000     0.059850000000    -0.375279   
O41      O      0.034630000000     0.916570000000     0.460180000000    -0.331693   
O42      O      0.461100000000     0.527900000000     0.458090000000    -0.369318   
O43      O      0.057790000000     0.513440000000     0.461460000000    -0.355092   
O44      O      0.437780000000     0.931450000000     0.456850000000    -0.395675   
O45      O      0.439950000000     0.925820000000     0.562040000000    -0.399396   
O46      O      0.050430000000     0.519560000000     0.565910000000    -0.40985    
O47      O      0.451660000000     0.521290000000     0.562470000000    -0.374882   
O48      O      0.040730000000     0.922900000000     0.564920000000    -0.381884   
O49      O      0.264660000000     0.772160000000     0.917610000000    -0.433194   
O50      O      0.272780000000     0.756270000000     0.098230000000    -0.431818   
O51      O      0.310930000000     0.720180000000     0.992770000000    -0.435825   
O52      O      0.225490000000     0.811540000000     0.018990000000    -0.424274   
O53      O      0.169300000000     0.760090000000     0.989720000000    -0.398956   
O54      O      0.254260000000     0.668570000000     0.019110000000    -0.417585   
O55      O      0.202070000000     0.723060000000     0.096120000000    -0.388192   
O56      O      0.216810000000     0.709820000000     0.916220000000    -0.474177   
O57      O      0.277390000000     0.750580000000     0.415810000000    -0.467739   
O58      O      0.285030000000     0.747340000000     0.596310000000    -0.463645   
O59      O      0.326850000000     0.714050000000     0.499330000000    -0.411919   
O60      O      0.227030000000     0.792310000000     0.515450000000    -0.449621   
O61      O      0.172140000000     0.735590000000     0.501470000000    -0.441868   
O62      O      0.271400000000     0.657590000000     0.511600000000    -0.456819   
O63      O      0.220340000000     0.701600000000     0.598830000000    -0.473018   
O64      O      0.219500000000     0.696320000000     0.417460000000    -0.469399   
O65      O      0.536340000000     0.441470000000     0.954640000000    -0.379277   
O66      O      0.941560000000     0.034330000000     0.954210000000    -0.383651   
O67      O      0.539330000000     0.039540000000     0.951600000000    -0.408529   
O68      O      0.939230000000     0.436340000000     0.957720000000    -0.408294   
O69      O      0.940970000000     0.438540000000     0.063470000000    -0.412053   
O70      O      0.540370000000     0.040760000000     0.057360000000    -0.40675    
O71      O      0.940500000000     0.033780000000     0.059740000000    -0.359496   
O72      O      0.540720000000     0.445700000000     0.059850000000    -0.375669   
O73      O      0.534630000000     0.416570000000     0.460180000000    -0.332114   
O74      O      0.961100000000     0.027900000000     0.458090000000    -0.369022   
O75      O      0.557790000000     0.013440000000     0.461460000000    -0.355166   
O76      O      0.937780000000     0.431450000000     0.456850000000    -0.395662   
O77      O      0.939950000000     0.425820000000     0.562040000000    -0.399393   
O78      O      0.550430000000     0.019560000000     0.565910000000    -0.409952   
O79      O      0.951660000000     0.021290000000     0.562470000000    -0.37456    
O80      O      0.540740000000     0.422900000000     0.564920000000    -0.382256   
O81      O      0.764660000000     0.272170000000     0.917610000000    -0.433067   
O82      O      0.772780000000     0.256270000000     0.098230000000    -0.431809   
O83      O      0.810930000000     0.220170000000     0.992770000000    -0.435886   
O84      O      0.725490000000     0.311540000000     0.018990000000    -0.424244   
O85      O      0.669300000000     0.260090000000     0.989720000000    -0.398959   
O86      O      0.754260000000     0.168570000000     0.019110000000    -0.417623   
O87      O      0.702070000000     0.223060000000     0.096120000000    -0.388201   
O88      O      0.716810000000     0.209820000000     0.916220000000    -0.474136   
O89      O      0.777390000000     0.250580000000     0.415810000000    -0.467706   
O90      O      0.785030000000     0.247340000000     0.596310000000    -0.463642   
O91      O      0.826850000000     0.214050000000     0.499330000000    -0.411948   
O92      O      0.727030000000     0.292310000000     0.515450000000    -0.449598   
O93      O      0.672140000000     0.235590000000     0.501470000000    -0.441716   
O94      O      0.771400000000     0.157590000000     0.511600000000    -0.456863   
O95      O      0.720340000000     0.201600000000     0.598830000000    -0.473004   
O96      O      0.719500000000     0.196310000000     0.417460000000    -0.469317   
O97      O      0.536340000000     0.941470000000     0.954640000000    -0.379153   
O98      O      0.941560000000     0.534330000000     0.954210000000    -0.383937   
O99      O      0.539330000000     0.539540000000     0.951600000000    -0.408889   
O100     O      0.939230000000     0.936330000000     0.957720000000    -0.408259   
O101     O      0.940970000000     0.938540000000     0.063470000000    -0.412052   
O102     O      0.540370000000     0.540760000000     0.057360000000    -0.407143   
O103     O      0.940500000000     0.533780000000     0.059740000000    -0.35986    
O104     O      0.540720000000     0.945700000000     0.059850000000    -0.375601   
O105     O      0.534630000000     0.916570000000     0.460180000000    -0.332065   
O106     O      0.961100000000     0.527900000000     0.458090000000    -0.369313   
O107     O      0.557790000000     0.513440000000     0.461460000000    -0.355464   
O108     O      0.937780000000     0.931450000000     0.456850000000    -0.39559    
O109     O      0.939950000000     0.925820000000     0.562040000000    -0.399308   
O110     O      0.550430000000     0.519560000000     0.565910000000    -0.410233   
O111     O      0.951650000000     0.521290000000     0.562470000000    -0.374834   
O112     O      0.540730000000     0.922900000000     0.564920000000    -0.382252   
O113     O      0.764660000000     0.772160000000     0.917610000000    -0.433183   
O114     O      0.772780000000     0.756270000000     0.098230000000    -0.431738   
O115     O      0.810930000000     0.720180000000     0.992770000000    -0.435836   
O116     O      0.725490000000     0.811540000000     0.018990000000    -0.424255   
O117     O      0.669300000000     0.760090000000     0.989720000000    -0.398896   
O118     O      0.754260000000     0.668570000000     0.019110000000    -0.41763    
O119     O      0.702070000000     0.723060000000     0.096120000000    -0.388242   
O120     O      0.716810000000     0.709820000000     0.916220000000    -0.474175   
O121     O      0.777390000000     0.750580000000     0.415810000000    -0.467733   
O122     O      0.785030000000     0.747340000000     0.596310000000    -0.463642   
O123     O      0.826850000000     0.714050000000     0.499330000000    -0.411925   
O124     O      0.727020000000     0.792310000000     0.515450000000    -0.449659   
O125     O      0.672140000000     0.735590000000     0.501470000000    -0.441928   
O126     O      0.771400000000     0.657590000000     0.511600000000    -0.45682    
O127     O      0.720340000000     0.701600000000     0.598830000000    -0.473024   
O128     O      0.719500000000     0.696320000000     0.417460000000    -0.469404   


