data_structure

_audit_creation_method RASPA-1.0
_audit_creation_date 2023-6-5
_audit_author_name 'Poobodin Mano'

_cell_length_a    35.2174
_cell_length_b    34.8559
_cell_length_c    20.5803
_cell_angle_alpha 89.9809
_cell_angle_beta  90.0192
_cell_angle_gamma 119.982
_cell_volume      21882.4

_symmetry_cell_setting          triclinic
_symmetry_space_group_name_Hall 'P 1'
_symmetry_space_group_name_H-M  'P 1'
_symmetry_Int_Tables_number     1

_symmetry_equiv_pos_as_xyz 'x,y,z'

loop_
_atom_site_label
_atom_site_type_symbol
_atom_site_fract_x
_atom_site_fract_y
_atom_site_fract_z
_atom_site_charge
C1       C      0.939780000000     0.727460000000     0.661370000000     0.399509   
C2       C      0.779360000000     0.655520000000     0.561160000000     0.401959   
C3       C      0.830060000000     0.691330000000     0.730940000000     0.406227   
C4       C      0.888000000000     0.691440000000     0.490990000000     0.411026   
C5       C      0.109050000000     0.808980000000     0.756890000000     0.412631   
C6       C      0.270310000000     0.897060000000     0.855970000000     0.411028   
C7       C      0.219010000000     0.875190000000     0.685090000000     0.399255   
C8       C      0.160300000000     0.831340000000     0.927460000000     0.399591   
C9       C      0.439280000000     0.982540000000     0.948560000000     0.400326   
C10      C      0.595770000000     0.052960000000     0.062840000000     0.411471   
C11      C      0.551420000000     0.021290000000     0.889320000000     0.399226   
C12      C      0.481890000000     0.013790000000     0.122480000000     0.413217   
C13      C      0.098610000000     0.296340000000     0.275610000000     0.411072   
C14      C      0.267220000000     0.383110000000     0.344640000000     0.410814   
C15      C      0.206160000000     0.339660000000     0.188040000000     0.399679   
C16      C      0.159960000000     0.338420000000     0.435000000000     0.397652   
C17      C      0.749450000000     0.121940000000     0.196130000000     0.400867   
C18      C      0.920240000000     0.208670000000     0.250790000000     0.398619   
C19      C      0.852640000000     0.182210000000     0.096920000000     0.399414   
C20      C      0.817480000000     0.148880000000     0.348860000000     0.41533    
C21      C      0.605180000000     0.566430000000     0.504370000000     0.413919   
C22      C      0.437000000000     0.473450000000     0.436500000000     0.399128   
C23      C      0.500200000000     0.501800000000     0.592480000000     0.402648   
C24      C      0.544020000000     0.540240000000     0.344330000000     0.417124   
C25      C      0.116250000000     0.372880000000     0.857300000000     0.411326   
C26      C      0.202060000000     0.294840000000     0.764340000000     0.400193   
C27      C      0.185140000000     0.332590000000     0.929500000000     0.415129   
C28      C      0.132270000000     0.336620000000     0.688260000000     0.414857   
C29      C      0.283560000000     0.211310000000     0.662540000000     0.411355   
C30      C      0.369220000000     0.121640000000     0.640900000000     0.411647   
C31      C      0.325930000000     0.158650000000     0.780850000000     0.402495   
C32      C      0.326190000000     0.173610000000     0.524110000000     0.402489   
C33      C      0.033170000000     0.460770000000     0.951010000000     0.399984   
C34      C      0.963130000000     0.557460000000     0.030350000000     0.411671   
C35      C      0.996450000000     0.529430000000     0.868140000000     0.412184   
C36      C      0.999300000000     0.486230000000     0.116080000000     0.395607   
C37      C      0.637770000000     0.908150000000     0.340810000000     0.400245   
C38      C      0.712490000000     0.814010000000     0.270920000000     0.39936    
C39      C      0.671900000000     0.837310000000     0.428790000000     0.411976   
C40      C      0.677850000000     0.885860000000     0.182320000000     0.41525    
C41      C      0.789550000000     0.730300000000     0.151250000000     0.410634   
C42      C      0.878050000000     0.650710000000     0.075670000000     0.398382   
C43      C      0.857260000000     0.689660000000     0.237460000000     0.395942   
C44      C      0.811250000000     0.692040000000     0.990840000000     0.398581   
C45      C      0.560530000000     0.980190000000     0.478550000000     0.412984   
C46      C      0.460470000000     0.050390000000     0.536060000000     0.398906   
C47      C      0.493360000000     0.015160000000     0.380830000000     0.396803   
C48      C      0.529370000000     0.016260000000     0.633050000000     0.412592   
C49      C      0.361550000000     0.244200000000     0.108440000000     0.401139   
C50      C      0.287840000000     0.077670000000     0.191740000000     0.414327   
C51      C      0.326400000000     0.133790000000     0.030490000000     0.418249   
C52      C      0.322980000000     0.188600000000     0.270000000000     0.416556   
C53      C      0.440460000000     0.403630000000     0.992330000000     0.413263   
C54      C      0.539150000000     0.576520000000     0.946070000000     0.399796   
C55      C      0.508000000000     0.505620000000     0.096140000000     0.401291   
C56      C      0.470050000000     0.473880000000     0.845170000000     0.417048   
C57      C      0.109410000000     0.737020000000     0.331310000000     0.401495   
C58      C      0.204740000000     0.911040000000     0.293510000000     0.401794   
C59      C      0.177210000000     0.837450000000     0.438560000000     0.412293   
C60      C      0.137190000000     0.810610000000     0.186770000000     0.414773   
C61      C      0.033760000000     0.572650000000     0.439040000000     0.414314   
C62      C      0.963270000000     0.409870000000     0.538030000000     0.410888   
C63      C      0.997650000000     0.460700000000     0.370290000000     0.413198   
C64      C      0.999900000000     0.524320000000     0.606910000000     0.396084   
C65      C      0.889550000000     0.256540000000     0.679180000000     0.399836   
C66      C      0.801420000000     0.091920000000     0.772050000000     0.399145   
C67      C      0.814840000000     0.143060000000     0.608010000000     0.400373   
C68      C      0.875890000000     0.204850000000     0.844520000000     0.415595   
C69      C      0.709250000000     0.913470000000     0.780440000000     0.411282   
C70      C      0.628550000000     0.741480000000     0.839830000000     0.411674   
C71      C      0.666640000000     0.806920000000     0.684500000000     0.401423   
C72      C      0.672020000000     0.847890000000     0.934480000000     0.401297   
C73      C      0.799770000000     0.022230000000     0.801860000000    -0.0140523  
C74      C      0.730850000000     0.026080000000     0.804650000000    -0.0647192  
C75      C      0.778220000000     0.982590000000     0.756170000000    -0.00961339 
C76      C      0.708010000000     0.984570000000     0.761060000000     0.163884   
C77      C      0.889910000000     0.325090000000     0.646650000000    -0.0150586  
C78      C      0.958980000000     0.321210000000     0.639840000000    -0.0653082  
C79      C      0.897170000000     0.342990000000     0.577420000000    -0.00938939 
C80      C      0.968000000000     0.342550000000     0.571870000000     0.16369    
C81      C      0.037950000000     0.668490000000     0.352500000000    -0.0144716  
C82      C      0.104930000000     0.664000000000     0.329870000000    -0.0647225  
C83      C      0.028180000000     0.638650000000     0.412350000000    -0.00901496 
C84      C      0.099270000000     0.638210000000     0.392420000000     0.166271   
C85      C      0.544740000000     0.649160000000     0.925890000000    -0.0143379  
C86      C      0.612550000000     0.642930000000     0.927530000000    -0.0650388  
C87      C      0.558530000000     0.672770000000     0.860570000000    -0.00969349 
C88      C      0.628320000000     0.670120000000     0.864220000000     0.164211   
C89      C      0.208420000000     0.983540000000     0.283810000000    -0.0137719  
C90      C      0.277100000000     0.979410000000     0.278520000000    -0.0646188  
C91      C      0.220110000000     0.009050000000     0.220110000000    -0.00926505 
C92      C      0.291560000000     0.008820000000     0.217340000000     0.164367   
C93      C      0.357290000000     0.311350000000     0.079370000000    -0.0160895  
C94      C      0.428330000000     0.310330000000     0.070150000000    -0.0672811  
C95      C      0.368010000000     0.336840000000     0.014550000000    -0.0100987  
C96      C      0.433730000000     0.328560000000     0.001520000000     0.167748   
C97      C      0.705660000000     0.809830000000     0.583080000000    -0.014885   
C98      C      0.624550000000     0.775980000000     0.582890000000    -0.0633186  
C99      C      0.710040000000     0.843360000000     0.531320000000    -0.00837662 
C100     C      0.627050000000     0.807540000000     0.529140000000     0.164195   
C101     C      0.632760000000     0.845620000000     0.035000000000    -0.0152527  
C102     C      0.715530000000     0.878750000000     0.034590000000    -0.064918   
C103     C      0.638520000000     0.882250000000     0.081530000000    -0.00646885 
C104     C      0.719420000000     0.915960000000     0.079120000000     0.164731   
C105     C      0.779760000000     0.811010000000     0.246000000000    -0.014725   
C106     C      0.706390000000     0.741670000000     0.242830000000    -0.0653946  
C107     C      0.790630000000     0.799720000000     0.179460000000    -0.00972124 
C108     C      0.718630000000     0.728850000000     0.177740000000     0.164201   
C109     C      0.641690000000     0.978580000000     0.376740000000    -0.0164327  
C110     C      0.570580000000     0.906360000000     0.378800000000    -0.0667113  
C111     C      0.632390000000     0.988080000000     0.446520000000    -0.0100911  
C112     C      0.566160000000     0.912930000000     0.451040000000     0.167275   
C113     C      0.042170000000     0.570940000000     0.700820000000    -0.0129493  
C114     C      0.961430000000     0.536930000000     0.698110000000    -0.0655715  
C115     C      0.040580000000     0.553790000000     0.769790000000    -0.00890789 
C116     C      0.956450000000     0.514900000000     0.764500000000     0.166002   
C117     C      0.039750000000     0.497660000000     0.219120000000    -0.0152359  
C118     C      0.956520000000     0.450240000000     0.214790000000    -0.0682284  
C119     C      0.039950000000     0.466450000000     0.271700000000    -0.00833657 
C120     C      0.959040000000     0.420900000000     0.268130000000     0.167777   
C121     C      0.875630000000     0.582190000000     0.037950000000    -0.0150034  
C122     C      0.946730000000     0.654090000000     0.037610000000    -0.0645425  
C123     C      0.898050000000     0.559420000000     0.069870000000    -0.00826195 
C124     C      0.970240000000     0.630280000000     0.065370000000     0.16331    
C125     C      0.366410000000     0.177390000000     0.884980000000    -0.0153231  
C126     C      0.283860000000     0.127140000000     0.881900000000    -0.0679473  
C127     C      0.369360000000     0.144590000000     0.931730000000    -0.00982673 
C128     C      0.288530000000     0.095460000000     0.928190000000     0.169421   
C129     C      0.367260000000     0.201770000000     0.421560000000    -0.0158458  
C130     C      0.284310000000     0.153370000000     0.421760000000    -0.0655729  
C131     C      0.363160000000     0.229680000000     0.367780000000    -0.00599666 
C132     C      0.281880000000     0.184300000000     0.371020000000     0.165808   
C133     C      0.454550000000     0.116390000000     0.563370000000    -0.0152683  
C134     C      0.386920000000     0.041020000000     0.559690000000    -0.0661677  
C135     C      0.440350000000     0.124210000000     0.629750000000    -0.00932807 
C136     C      0.371830000000     0.050840000000     0.624780000000     0.164984   
C137     C      0.025510000000     0.392520000000     0.900250000000    -0.0142027  
C138     C      0.097740000000     0.463590000000     0.900290000000    -0.0667805  
C139     C      0.050070000000     0.366700000000     0.909760000000    -0.010208   
C140     C      0.121250000000     0.438180000000     0.916290000000     0.166845   
C141     C      0.271920000000     0.298570000000     0.732440000000    -0.0163509  
C142     C      0.200790000000     0.225550000000     0.734670000000    -0.066634   
C143     C      0.285010000000     0.283240000000     0.670610000000    -0.00973134 
C144     C      0.213110000000     0.213470000000     0.669760000000     0.1663     
C145     C      0.507630000000     0.468090000000     0.693210000000    -0.0157263  
C146     C      0.470910000000     0.515090000000     0.693290000000    -0.0653515  
C147     C      0.474820000000     0.438370000000     0.744390000000    -0.00649122 
C148     C      0.437370000000     0.482790000000     0.742290000000     0.165925   
C149     C      0.499360000000     0.536870000000     0.198930000000    -0.0154079  
C150     C      0.542690000000     0.496500000000     0.194890000000    -0.0676521  
C151     C      0.534930000000     0.571790000000     0.242920000000    -0.00916691 
C152     C      0.576420000000     0.531550000000     0.240770000000     0.168029   
C153     C      0.879150000000     0.167490000000     0.994020000000    -0.0155316  
C154     C      0.845240000000     0.217130000000     0.997110000000    -0.0682458  
C155     C      0.911820000000     0.198610000000     0.942990000000    -0.00956428 
C156     C      0.878150000000     0.246280000000     0.945140000000     0.168612   
C157     C      0.812210000000     0.099150000000     0.511590000000    -0.012875   
C158     C      0.768570000000     0.137120000000     0.513790000000    -0.0644231  
C159     C      0.834210000000     0.122090000000     0.448090000000    -0.00957924 
C160     C      0.791300000000     0.163600000000     0.452280000000     0.165482   
C161     C      0.130030000000     0.296800000000     0.536930000000    -0.0159402  
C162     C      0.165560000000     0.380860000000     0.533890000000    -0.068392   
C163     C      0.097670000000     0.295610000000     0.587910000000    -0.00892813 
C164     C      0.133510000000     0.377500000000     0.587060000000     0.16836    
C165     C      0.241540000000     0.380720000000     0.087000000000    -0.0129558  
C166     C      0.208440000000     0.299020000000     0.090790000000    -0.0641821  
C167     C      0.214860000000     0.377490000000     0.026780000000    -0.00966735 
C168     C      0.178690000000     0.293030000000     0.032450000000     0.165641   
C169     C      0.988580000000     0.278630000000     0.277670000000    -0.0170152  
C170     C      0.987010000000     0.205820000000     0.280140000000    -0.0672934  
C171     C      0.032570000000     0.299320000000     0.241620000000    -0.00876963 
C172     C      0.030030000000     0.226360000000     0.242020000000     0.166673   
C173     C      0.369450000000     0.400470000000     0.420550000000    -0.0151643  
C174     C      0.366010000000     0.470500000000     0.422080000000    -0.065688   
C175     C      0.336760000000     0.383320000000     0.363780000000    -0.0107681  
C176     C      0.336790000000     0.455440000000     0.361920000000     0.165677   
C177     C      0.588230000000     0.062200000000     0.788630000000    -0.0128262  
C178     C      0.552430000000     0.980370000000     0.791720000000    -0.0634616  
C179     C      0.558890000000     0.060130000000     0.732420000000    -0.010045   
C180     C      0.520700000000     0.975730000000     0.736740000000     0.164023   
C181     C      0.508070000000     0.055510000000     0.277010000000    -0.0149379  
C182     C      0.464080000000     0.971180000000     0.280700000000    -0.068026   
C183     C      0.479730000000     0.054180000000     0.219550000000    -0.00993025 
C184     C      0.438370000000     0.972220000000     0.221090000000     0.167705   
C185     C      0.680680000000     0.052500000000     0.167310000000    -0.0151522  
C186     C      0.680460000000     0.123340000000     0.180190000000    -0.0644567  
C187     C      0.658160000000     0.045070000000     0.100940000000    -0.0100142  
C188     C      0.660800000000     0.118680000000     0.112350000000     0.165087   
C189     C      0.212150000000     0.907200000000     0.582060000000    -0.0169872  
C190     C      0.246710000000     0.860200000000     0.583180000000    -0.0638109  
C191     C      0.174190000000     0.872960000000     0.540280000000    -0.00801506 
C192     C      0.210440000000     0.825840000000     0.539170000000     0.164766   
C193     C      0.166850000000     0.797830000000     0.028390000000    -0.0155971  
C194     C      0.132640000000     0.847200000000     0.028010000000    -0.0647948  
C195     C      0.137810000000     0.772850000000     0.085980000000    -0.0064065  
C196     C      0.103260000000     0.820050000000     0.085130000000     0.165759   
C197     C      0.381070000000     0.989950000000     0.890730000000    -0.014845   
C198     C      0.379500000000     0.917370000000     0.893900000000    -0.06574    
C199     C      0.331310000000     0.965570000000     0.903670000000    -0.0109582  
C200     C      0.331500000000     0.893900000000     0.913810000000     0.166441   
C201     C      0.772460000000     0.652050000000     0.890840000000    -0.0129088  
C202     C      0.813290000000     0.734040000000     0.892390000000    -0.063968   
C203     C      0.798650000000     0.650990000000     0.832350000000    -0.00912877 
C204     C      0.836750000000     0.735960000000     0.828290000000     0.163047   
C205     C      0.893850000000     0.732600000000     0.335940000000    -0.0164598  
C206     C      0.848120000000     0.648530000000     0.339550000000    -0.065286   
C207     C      0.923390000000     0.730560000000     0.388870000000    -0.00748709 
C208     C      0.880820000000     0.648560000000     0.389240000000     0.16472    
C209     C      0.716950000000     0.661050000000     0.514350000000    -0.015346   
C210     C      0.716480000000     0.589060000000     0.514240000000    -0.0665694  
C211     C      0.669520000000     0.637030000000     0.540220000000    -0.0102801  
C212     C      0.671950000000     0.566340000000     0.547240000000     0.167897   
C213     C      0.002490000000     0.793040000000     0.710700000000    -0.0107457  
C214     C      0.996460000000     0.718380000000     0.719430000000    -0.0657944  
C215     C      0.051250000000     0.813920000000     0.697030000000    -0.0100826  
C216     C      0.046340000000     0.739840000000     0.709470000000     0.165355   
Cu1      Cu     0.864880000000     0.728950000000     0.601900000000     0.842436   
Cu2      Cu     0.854200000000     0.654250000000     0.620410000000     0.852865   
Cu3      Cu     0.186470000000     0.886840000000     0.810470000000     0.84052    
Cu4      Cu     0.192950000000     0.819760000000     0.802010000000     0.8614     
Cu5      Cu     0.522610000000     0.055230000000     0.997940000000     0.845487   
Cu6      Cu     0.511910000000     0.980340000000     0.014440000000     0.849987   
Cu7      Cu     0.184180000000     0.374960000000     0.302920000000     0.851537   
Cu8      Cu     0.181300000000     0.303480000000     0.319420000000     0.846297   
Cu9      Cu     0.833640000000     0.199980000000     0.228710000000     0.849107   
Cu10     Cu     0.836240000000     0.130810000000     0.217080000000     0.846052   
Cu11     Cu     0.518210000000     0.554010000000     0.473560000000     0.850179   
Cu12     Cu     0.524760000000     0.487010000000     0.463010000000     0.860494   
Cu13     Cu     0.126060000000     0.297330000000     0.817110000000     0.843167   
Cu14     Cu     0.191550000000     0.370760000000     0.800380000000     0.859522   
Cu15     Cu     0.290910000000     0.131440000000     0.649540000000     0.860175   
Cu16     Cu     0.361700000000     0.201240000000     0.655330000000     0.843634   
Cu17     Cu     0.960800000000     0.476040000000     0.986140000000     0.840431   
Cu18     Cu     0.034960000000     0.540780000000     0.998430000000     0.852711   
Cu19     Cu     0.638620000000     0.828850000000     0.296170000000     0.857551   
Cu20     Cu     0.711910000000     0.893910000000     0.314450000000     0.843681   
Cu21     Cu     0.801130000000     0.654000000000     0.121440000000     0.846638   
Cu22     Cu     0.867150000000     0.727290000000     0.106680000000     0.83904    
Cu23     Cu     0.478870000000     0.978180000000     0.512910000000     0.856936   
Cu24     Cu     0.542800000000     0.053250000000     0.501410000000     0.839175   
Cu25     Cu     0.361410000000     0.166020000000     0.160210000000     0.856968   
Cu26     Cu     0.287900000000     0.156180000000     0.140380000000     0.859177   
Cu27     Cu     0.521770000000     0.485540000000     0.963000000000     0.857833   
Cu28     Cu     0.457310000000     0.494890000000     0.977760000000     0.850015   
Cu29     Cu     0.189700000000     0.820330000000     0.303080000000     0.854538   
Cu30     Cu     0.124480000000     0.827790000000     0.322230000000     0.846031   
Cu31     Cu     0.035520000000     0.497160000000     0.498090000000     0.855129   
Cu32     Cu     0.961380000000     0.485980000000     0.480310000000     0.845007   
Cu33     Cu     0.877480000000     0.169400000000     0.716130000000     0.8431     
Cu34     Cu     0.813660000000     0.179180000000     0.735960000000     0.849653   
Cu35     Cu     0.705140000000     0.829700000000     0.814600000000     0.850853   
Cu36     Cu     0.633170000000     0.825070000000     0.804360000000     0.8536     
H1       H      0.784820000000     0.995140000000     0.705340000000     0.0398484  
H2       H      0.835650000000     0.041050000000     0.792630000000     0.0435459  
H3       H      0.711470000000     0.996000000000     0.709600000000     0.00487558 
H4       H      0.716530000000     0.047620000000     0.795050000000     0.0598336  
H5       H      0.793960000000     0.962080000000     0.762940000000     0.0439596  
H6       H      0.794770000000     0.009640000000     0.852620000000     0.0408326  
H7       H      0.724170000000     0.015290000000     0.856290000000     0.0620036  
H8       H      0.648610000000     0.974420000000     0.755420000000     0.140673   
H9       H      0.880670000000     0.314520000000     0.543350000000     0.0415457  
H10      H      0.854090000000     0.305850000000     0.656180000000     0.0460301  
H11      H      0.954370000000     0.315100000000     0.535530000000     0.00463206 
H12      H      0.972410000000     0.298380000000     0.642400000000     0.0611097  
H13      H      0.881140000000     0.363370000000     0.572430000000     0.045006   
H14      H      0.904570000000     0.353630000000     0.680830000000     0.0442884  
H15      H      0.976890000000     0.347900000000     0.676220000000     0.0647617  
H16      H      0.024570000000     0.348800000000     0.550730000000     0.139986   
H17      H      0.038440000000     0.660140000000     0.456220000000     0.0413896  
H18      H      0.025060000000     0.691410000000     0.360780000000     0.0460644  
H19      H      0.118170000000     0.662180000000     0.431920000000     0.00736818 
H20      H      0.140290000000     0.682970000000     0.317010000000     0.0618127  
H21      H      0.992130000000     0.616280000000     0.415940000000     0.045501   
H22      H      0.020030000000     0.647040000000     0.310380000000     0.0419936  
H23      H      0.087660000000     0.639930000000     0.289940000000     0.0616798  
H24      H      0.147840000000     0.626590000000     0.389350000000     0.141342   
H25      H      0.544770000000     0.647420000000     0.821400000000     0.0421107  
H26      H      0.508350000000     0.630450000000     0.928510000000     0.0467118  
H27      H      0.617790000000     0.646210000000     0.822930000000     0.00472112 
H28      H      0.624870000000     0.619150000000     0.929210000000     0.0602704  
H29      H      0.543580000000     0.694120000000     0.855530000000     0.0455956  
H30      H      0.557090000000     0.674530000000     0.965070000000     0.0420934  
H31      H      0.627380000000     0.666040000000     0.969220000000     0.0626864  
H32      H      0.685910000000     0.676380000000     0.852260000000     0.139841   
H33      H      0.205470000000     0.985020000000     0.179410000000     0.046225   
H34      H      0.172150000000     0.964190000000     0.288530000000     0.0476323  
H35      H      0.281990000000     0.986460000000     0.174240000000     0.0067415  
H36      H      0.290400000000     0.956460000000     0.276540000000     0.0602578  
H37      H      0.204840000000     0.030290000000     0.220240000000     0.0488976  
H38      H      0.221470000000     0.007740000000     0.324540000000     0.0435129  
H39      H      0.291730000000     0.001130000000     0.321680000000     0.0628063  
H40      H      0.350270000000     0.018200000000     0.203850000000     0.141097   
H41      H      0.349960000000     0.312490000000     0.975320000000     0.041573   
H42      H      0.321210000000     0.289360000000     0.083470000000     0.0468316  
H43      H      0.413770000000     0.300220000000     0.968090000000     0.00259454 
H44      H      0.443250000000     0.288800000000     0.072620000000     0.0609114  
H45      H      0.355520000000     0.360470000000     0.016060000000     0.0461776  
H46      H      0.367640000000     0.335960000000     0.119430000000     0.0424815  
H47      H      0.446240000000     0.338330000000     0.104610000000     0.0638618  
H48      H      0.483900000000     0.325300000000     0.969090000000     0.137283   
H49      H      0.716780000000     0.874570000000     0.555860000000     0.0424264  
H50      H      0.735550000000     0.824830000000     0.613990000000     0.0457625  
H51      H      0.626080000000     0.835860000000     0.552820000000     0.00640689 
H52      H      0.595290000000     0.766440000000     0.613860000000     0.0588838  
H53      H      0.738640000000     0.850860000000     0.499850000000     0.0411619  
H54      H      0.703230000000     0.780340000000     0.558250000000     0.0419837  
H55      H      0.620410000000     0.745290000000     0.559670000000     0.0614413  
H56      H      0.565590000000     0.785740000000     0.509220000000     0.13821    
H57      H      0.640830000000     0.910140000000     0.052160000000     0.0388225  
H58      H      0.604360000000     0.837120000000     0.002630000000     0.0457612  
H59      H      0.721260000000     0.943040000000     0.047910000000     0.00349386 
H60      H      0.744260000000     0.892640000000     0.001320000000     0.057939   
H61      H      0.609250000000     0.870080000000     0.113480000000     0.0412584  
H62      H      0.624580000000     0.815600000000     0.064150000000     0.0456064  
H63      H      0.716440000000     0.852810000000     0.064950000000     0.0634877  
H64      H      0.782480000000     0.952570000000     0.089390000000     0.137513   
H65      H      0.779840000000     0.814990000000     0.141560000000     0.0417652  
H66      H      0.796860000000     0.847620000000     0.251190000000     0.0464367  
H67      H      0.705900000000     0.741200000000     0.138040000000     0.0050668  
H68      H      0.670440000000     0.728630000000     0.244110000000     0.0606272  
H69      H      0.826820000000     0.815100000000     0.175700000000     0.0444872  
H70      H      0.792650000000     0.797800000000     0.283980000000     0.0421207  
H71      H      0.714340000000     0.725250000000     0.282660000000     0.0633578  
H72      H      0.667470000000     0.671150000000     0.161430000000     0.139428   
H73      H      0.651080000000     0.978910000000     0.480570000000     0.0412214  
H74      H      0.677630000000     0.993570000000     0.369760000000     0.0482187  
H75      H      0.586110000000     0.901580000000     0.478600000000     0.00698968 
H76      H      0.554330000000     0.870330000000     0.368100000000     0.0634803  
H77      H      0.645170000000     0.024200000000     0.452110000000     0.0466793  
H78      H      0.630180000000     0.995300000000     0.342500000000     0.0429251  
H79      H      0.553400000000     0.920380000000     0.350520000000     0.0626394  
H80      H      0.515790000000     0.856760000000     0.476380000000     0.139663   
H81      H      0.047890000000     0.526250000000     0.767080000000     0.0419896  
H82      H      0.071250000000     0.573990000000     0.674920000000     0.0454262  
H83      H      0.948020000000     0.479850000000     0.756360000000     0.00747202 
H84      H      0.931330000000     0.516490000000     0.668970000000     0.0589418  
H85      H      0.067500000000     0.580660000000     0.798490000000     0.0467067  
H86      H      0.046610000000     0.604780000000     0.704610000000     0.0389428  
H87      H      0.964650000000     0.570050000000     0.705670000000     0.0618058  
H88      H      0.894440000000     0.490740000000     0.782850000000     0.141027   
H89      H      0.042770000000     0.439460000000     0.247440000000     0.0387287  
H90      H      0.069200000000     0.508790000000     0.187890000000     0.044514   
H91      H      0.962610000000     0.394270000000     0.243730000000     0.00169219 
H92      H      0.929310000000     0.429070000000     0.181130000000     0.0589292  
H93      H      0.069150000000     0.485150000000     0.303330000000     0.0474163  
H94      H      0.042300000000     0.527420000000     0.243210000000     0.0489643  
H95      H      0.948130000000     0.473960000000     0.237690000000     0.0652124  
H96      H      0.897700000000     0.376630000000     0.280040000000     0.13723    
H97      H      0.895510000000     0.561560000000     0.123480000000     0.0391963  
H98      H      0.840770000000     0.565290000000     0.053560000000     0.0454852  
H99      H      0.971960000000     0.634460000000     0.119260000000     0.00367425 
H100     H      0.963240000000     0.688650000000     0.056250000000     0.0595139  
H101     H      0.879860000000     0.523750000000     0.056630000000     0.0450677  
H102     H      0.876090000000     0.578030000000     0.984430000000     0.0456673  
H103     H      0.950290000000     0.655690000000     0.983820000000     0.0655607  
H104     H      0.031070000000     0.677540000000     0.064970000000     0.139469   
H105     H      0.373930000000     0.120310000000     0.902640000000     0.0394403  
H106     H      0.396110000000     0.192700000000     0.853650000000     0.0430343  
H107     H      0.293460000000     0.071600000000     0.898230000000     0.00425856 
H108     H      0.255600000000     0.107960000000     0.848840000000     0.0618863  
H109     H      0.398410000000     0.162850000000     0.963820000000     0.0423693  
H110     H      0.366070000000     0.204100000000     0.914070000000     0.0427222  
H111     H      0.276470000000     0.149480000000     0.911060000000     0.0672778  
H112     H      0.228170000000     0.048330000000     0.938740000000     0.139463   
H113     H      0.362130000000     0.257970000000     0.390950000000     0.0376046  
H114     H      0.395590000000     0.223460000000     0.453150000000     0.0446477  
H115     H      0.281220000000     0.212050000000     0.397090000000     0.00369614 
H116     H      0.255180000000     0.140700000000     0.454100000000     0.060295   
H117     H      0.392590000000     0.243610000000     0.335890000000     0.0418571  
H118     H      0.374600000000     0.177350000000     0.398510000000     0.0465039  
H119     H      0.283200000000     0.124620000000     0.396480000000     0.06494    
H120     H      0.219080000000     0.158930000000     0.359580000000     0.138801   
H121     H      0.453930000000     0.111640000000     0.667660000000     0.0383447  
H122     H      0.490950000000     0.134560000000     0.561230000000     0.0446218  
H123     H      0.384230000000     0.038150000000     0.664470000000     0.00408157 
H124     H      0.375140000000     0.004960000000     0.556380000000     0.0606774  
H125     H      0.455000000000     0.160410000000     0.637580000000     0.0438946  
H126     H      0.442430000000     0.130390000000     0.525460000000     0.0435736  
H127     H      0.371180000000     0.049480000000     0.519620000000     0.0631495  
H128     H      0.315580000000     0.997230000000     0.637100000000     0.142428   
H129     H      0.049240000000     0.358880000000     0.962310000000     0.0399766  
H130     H      0.993510000000     0.374760000000     0.925990000000     0.0447324  
H131     H      0.121600000000     0.435080000000     0.970290000000     0.00250003 
H132     H      0.116440000000     0.497160000000     0.922140000000     0.0619457  
H133     H      0.032000000000     0.334760000000     0.883140000000     0.0471683  
H134     H      0.018580000000     0.392640000000     0.847550000000     0.0453586  
H135     H      0.098060000000     0.467850000000     0.846660000000     0.0655171  
H136     H      0.182040000000     0.484790000000     0.926430000000     0.138223   
H137     H      0.275710000000     0.296430000000     0.628010000000     0.0390178  
H138     H      0.285490000000     0.334970000000     0.729770000000     0.0472599  
H139     H      0.202380000000     0.227900000000     0.630200000000     0.00245306 
H140     H      0.164540000000     0.210380000000     0.736680000000     0.0612934  
H141     H      0.321220000000     0.298160000000     0.669610000000     0.0446462  
H142     H      0.287550000000     0.291990000000     0.774670000000     0.0453049  
H143     H      0.210860000000     0.211050000000     0.774680000000     0.0660585  
H144     H      0.161050000000     0.157530000000     0.648530000000     0.137781   
H145     H      0.446600000000     0.410630000000     0.718890000000     0.0378506  
H146     H      0.515600000000     0.447480000000     0.661020000000     0.0462518  
H147     H      0.409840000000     0.455460000000     0.714700000000     0.00311607 
H148     H      0.454220000000     0.527390000000     0.660400000000     0.0582324  
H149     H      0.489950000000     0.423730000000     0.775950000000     0.0434437  
H150     H      0.538420000000     0.492070000000     0.718370000000     0.0456784  
H151     H      0.497110000000     0.543960000000     0.719980000000     0.0639811  
H152     H      0.398860000000     0.507160000000     0.754350000000     0.139287   
H153     H      0.560350000000     0.598290000000     0.211830000000     0.0385573  
H154     H      0.486150000000     0.553450000000     0.167500000000     0.0434274  
H155     H      0.601810000000     0.558730000000     0.210190000000     0.00587027 
H156     H      0.559640000000     0.485210000000     0.160890000000     0.0608318  
H157     H      0.520190000000     0.586910000000     0.274220000000     0.0432482  
H158     H      0.472180000000     0.512270000000     0.229870000000     0.0438176  
H159     H      0.519500000000     0.467350000000     0.224330000000     0.0653956  
H160     H      0.618340000000     0.511240000000     0.251700000000     0.14069    
H161     H      0.941260000000     0.224770000000     0.968550000000     0.0381199  
H162     H      0.896050000000     0.154790000000     0.025670000000     0.0425764  
H163     H      0.908020000000     0.272140000000     0.970650000000     0.00151711 
H164     H      0.838880000000     0.238410000000     0.030390000000     0.0590237  
H165     H      0.922240000000     0.179550000000     0.911660000000     0.0418482  
H166     H      0.851900000000     0.138740000000     0.968660000000     0.0440392  
H167     H      0.813690000000     0.194080000000     0.972830000000     0.0655061  
H168     H      0.862670000000     0.291990000000     0.932040000000     0.137891   
H169     H      0.867880000000     0.149310000000     0.459510000000     0.0405366  
H170     H      0.834610000000     0.091690000000     0.540010000000     0.042239   
H171     H      0.818540000000     0.196860000000     0.467090000000     0.0066945  
H172     H      0.758250000000     0.156640000000     0.544270000000     0.0582247  
H173     H      0.837820000000     0.098010000000     0.416990000000     0.0431822  
H174     H      0.782600000000     0.067040000000     0.499320000000     0.0393435  
H175     H      0.738690000000     0.105830000000     0.499280000000     0.0609839  
H176     H      0.758340000000     0.193420000000     0.433560000000     0.140833   
H177     H      0.068710000000     0.293180000000     0.562300000000     0.0368497  
H178     H      0.112560000000     0.267250000000     0.504990000000     0.0440097  
H179     H      0.103990000000     0.374540000000     0.562260000000     0.00490206 
H180     H      0.171660000000     0.408400000000     0.500390000000     0.0624254  
H181     H      0.086350000000     0.265640000000     0.618740000000     0.0416411  
H182     H      0.156750000000     0.294550000000     0.562240000000     0.044782   
H183     H      0.197410000000     0.389620000000     0.557120000000     0.0669514  
H184     H      0.151180000000     0.439330000000     0.601240000000     0.142684   
H185     H      0.187130000000     0.382130000000     0.042110000000     0.0418402  
H186     H      0.248530000000     0.410620000000     0.115560000000     0.0437934  
H187     H      0.145880000000     0.285390000000     0.051090000000     0.00762287 
H188     H      0.191910000000     0.269270000000     0.122500000000     0.0606665  
H189     H      0.235840000000     0.405590000000     0.993980000000     0.0460735  
H190     H      0.273500000000     0.384910000000     0.070590000000     0.040039   
H191     H      0.239470000000     0.301770000000     0.072550000000     0.061245   
H192     H      0.151860000000     0.229960000000     0.014970000000     0.142155   
H193     H      0.025850000000     0.297590000000     0.188570000000     0.03965    
H194     H      0.970260000000     0.295230000000     0.261450000000     0.0463521  
H195     H      0.021690000000     0.222110000000     0.189180000000     0.00334865 
H196     H      0.967220000000     0.170080000000     0.267770000000     0.0599613  
H197     H      0.051970000000     0.334880000000     0.255140000000     0.045378   
H198     H      0.995350000000     0.285170000000     0.330500000000     0.0439427  
H199     H      0.994800000000     0.208220000000     0.332890000000     0.0615241  
H200     H      0.039810000000     0.176510000000     0.231400000000     0.138447   
H201     H      0.355720000000     0.389640000000     0.317970000000     0.0399197  
H202     H      0.392070000000     0.387050000000     0.415740000000     0.0450842  
H203     H      0.358330000000     0.467060000000     0.318070000000     0.00311403 
H204     H      0.385860000000     0.507270000000     0.421760000000     0.0608108  
H205     H      0.315670000000     0.346830000000     0.368730000000     0.0457731  
H206     H      0.350710000000     0.387160000000     0.466440000000     0.0415291  
H207     H      0.344810000000     0.460420000000     0.466070000000     0.0628968  
H208     H      0.327530000000     0.505080000000     0.344750000000     0.138947   
H209     H      0.532120000000     0.064660000000     0.752680000000     0.0407866  
H210     H      0.598070000000     0.092490000000     0.818070000000     0.043212   
H211     H      0.489310000000     0.969780000000     0.759000000000     0.00620632 
H212     H      0.536460000000     0.950600000000     0.823480000000     0.060217   
H213     H      0.578410000000     0.088620000000     0.699490000000     0.0434517  
H214     H      0.618530000000     0.064760000000     0.767680000000     0.0396109  
H215     H      0.581980000000     0.981900000000     0.769680000000     0.0607883  
H216     H      0.490340000000     0.912410000000     0.719600000000     0.142269   
H217     H      0.450530000000     0.054780000000     0.238890000000     0.0417491  
H218     H      0.515890000000     0.084950000000     0.307390000000     0.0447765  
H219     H      0.409190000000     0.973570000000     0.239330000000     0.00146274 
H220     H      0.441480000000     0.943550000000     0.313000000000     0.0611111  
H221     H      0.498800000000     0.084300000000     0.189310000000     0.0474265  
H222     H      0.539470000000     0.059700000000     0.257920000000     0.047747   
H223     H      0.489760000000     0.963740000000     0.264080000000     0.0652494  
H224     H      0.398510000000     0.909510000000     0.206080000000     0.138699   
H225     H      0.683840000000     0.055880000000     0.062770000000     0.0408296  
H226     H      0.701550000000     0.036890000000     0.167380000000     0.0488689  
H227     H      0.688230000000     0.136060000000     0.076950000000     0.00510672 
H228     H      0.700420000000     0.159040000000     0.192730000000     0.0620688  
H229     H      0.635690000000     0.008950000000     0.094160000000     0.0457299  
H230     H      0.654800000000     0.035500000000     0.204790000000     0.0428416  
H231     H      0.653140000000     0.107780000000     0.215930000000     0.0626591  
H232     H      0.654320000000     0.170800000000     0.105930000000     0.139682   
H233     H      0.146700000000     0.850730000000     0.572840000000     0.0412861  
H234     H      0.200380000000     0.925510000000     0.612480000000     0.046316   
H235     H      0.185220000000     0.799680000000     0.571220000000     0.00794201 
H236     H      0.259910000000     0.843790000000     0.615000000000     0.0591646  
H237     H      0.162600000000     0.890750000000     0.508250000000     0.0421691  
H238     H      0.238280000000     0.931360000000     0.549240000000     0.0441573  
H239     H      0.273970000000     0.884330000000     0.551830000000     0.0609375  
H240     H      0.230840000000     0.784110000000     0.523500000000     0.139847   
H241     H      0.107300000000     0.744240000000     0.066670000000     0.0379053  
H242     H      0.170530000000     0.773810000000     0.997290000000     0.0487472  
H243     H      0.072530000000     0.791900000000     0.064880000000     0.00278546 
H244     H      0.113560000000     0.856930000000     0.995600000000     0.0577783  
H245     H      0.154420000000     0.759290000000     0.116540000000     0.042093   
H246     H      0.200000000000     0.821970000000     0.047080000000     0.0461911  
H247     H      0.160920000000     0.878100000000     0.047330000000     0.0659208  
H248     H      0.069210000000     0.848980000000     0.101170000000     0.138916   
H249     H      0.326110000000     0.968340000000     0.956360000000     0.043203   
H250     H      0.396270000000     0.023350000000     0.913380000000     0.0457978  
H251     H      0.330060000000     0.895340000000     0.967920000000     0.00591301 
H252     H      0.395220000000     0.899210000000     0.914390000000     0.0621376  
H253     H      0.316890000000     0.982850000000     0.876600000000     0.0464189  
H254     H      0.386350000000     0.994510000000     0.837360000000     0.0421285  
H255     H      0.381350000000     0.916120000000     0.840030000000     0.062567   
H256     H      0.317930000000     0.833070000000     0.927270000000     0.139368   
H257     H      0.825530000000     0.645680000000     0.850050000000     0.0441881  
H258     H      0.761970000000     0.621710000000     0.920500000000     0.0432578  
H259     H      0.871500000000     0.746330000000     0.840250000000     0.00478803 
H260     H      0.834640000000     0.763720000000     0.922280000000     0.0573637  
H261     H      0.776690000000     0.622040000000     0.801530000000     0.0420104  
H262     H      0.742680000000     0.652040000000     0.872880000000     0.0395295  
H263     H      0.783280000000     0.735670000000     0.880540000000     0.0655494  
H264     H      0.859670000000     0.797440000000     0.802760000000     0.138211   
H265     H      0.951380000000     0.730120000000     0.364530000000     0.0371771  
H266     H      0.914380000000     0.760310000000     0.302340000000     0.0446908  
H267     H      0.908160000000     0.648490000000     0.361870000000     0.00216238 
H268     H      0.836440000000     0.619010000000     0.307560000000     0.05784    
H269     H      0.937180000000     0.760970000000     0.419280000000     0.0411822  
H270     H      0.870370000000     0.740780000000     0.359540000000     0.0446173  
H271     H      0.819270000000     0.645690000000     0.365980000000     0.0654813  
H272     H      0.858170000000     0.585640000000     0.402730000000     0.138611   
H273     H      0.670710000000     0.642180000000     0.593670000000     0.0419062  
H274     H      0.734380000000     0.695470000000     0.533510000000     0.0457142  
H275     H      0.677360000000     0.570740000000     0.600850000000     0.00464955 
H276     H      0.734920000000     0.572070000000     0.527850000000     0.0648256  
H277     H      0.651780000000     0.652820000000     0.518540000000     0.0462087  
H278     H      0.715690000000     0.662870000000     0.460510000000     0.0439529  
H279     H      0.711430000000     0.585740000000     0.460700000000     0.0664045  
H280     H      0.661380000000     0.506670000000     0.562300000000     0.138886   
H281     H      0.055940000000     0.814770000000     0.643480000000     0.0388338  
H282     H      0.989930000000     0.812450000000     0.684840000000     0.0435341  
H283     H      0.052510000000     0.737300000000     0.656890000000     0.00424875 
H284     H      0.980240000000     0.684660000000     0.697690000000     0.0606634  
H285     H      0.067810000000     0.848810000000     0.714190000000     0.0440126  
H286     H      0.997970000000     0.795620000000     0.763690000000     0.0415253  
H287     H      0.989470000000     0.714550000000     0.772480000000     0.0654819  
H288     H      0.055290000000     0.689600000000     0.721890000000     0.140309   
N1       N      0.730340000000     0.958070000000     0.767110000000    -0.180521   
N2       N      0.778540000000     0.049110000000     0.793690000000    -0.160496   
N3       N      0.944550000000     0.367730000000     0.563090000000    -0.179267   
N4       N      0.911800000000     0.298830000000     0.655200000000    -0.158813   
N5       N      0.052350000000     0.613970000000     0.411650000000    -0.181289   
N6       N      0.085130000000     0.692030000000     0.338210000000    -0.159748   
N7       N      0.606870000000     0.697230000000     0.855640000000    -0.180098   
N8       N      0.564420000000     0.620860000000     0.933390000000    -0.159742   
N9       N      0.268220000000     0.034400000000     0.212070000000    -0.179158   
N10      N      0.229070000000     0.955910000000     0.285200000000    -0.159599   
N11      N      0.415440000000     0.358660000000     0.000760000000    -0.181792   
N12      N      0.381290000000     0.286820000000     0.086310000000    -0.16015    
N13      N      0.669230000000     0.826270000000     0.493100000000    -0.180853   
N14      N      0.665470000000     0.796590000000     0.620310000000    -0.159777   
N15      N      0.679210000000     0.897760000000     0.118740000000    -0.182787   
N16      N      0.673600000000     0.858590000000     0.998620000000    -0.159474   
N17      N      0.767040000000     0.751200000000     0.170370000000    -0.179806   
N18      N      0.731890000000     0.789980000000     0.253050000000    -0.159223   
N19      N      0.585190000000     0.961120000000     0.462070000000    -0.18034    
N20      N      0.617600000000     0.930570000000     0.362600000000    -0.159624   
N21      N      0.997690000000     0.537040000000     0.802630000000    -0.178861   
N22      N      0.001060000000     0.542470000000     0.666340000000    -0.157947   
N23      N      0.998500000000     0.447450000000     0.307900000000    -0.181316   
N24      N      0.998900000000     0.475960000000     0.180440000000    -0.158713   
N25      N      0.944780000000     0.581990000000     0.051490000000    -0.179235   
N26      N      0.899660000000     0.629770000000     0.053520000000    -0.159351   
N27      N      0.328010000000     0.121340000000     0.968180000000    -0.182723   
N28      N      0.325500000000     0.154430000000     0.846760000000    -0.159725   
N29      N      0.322230000000     0.202730000000     0.331610000000    -0.182851   
N30      N      0.325850000000     0.177260000000     0.458230000000    -0.160001   
N31      N      0.392030000000     0.099430000000     0.633420000000    -0.180854   
N32      N      0.435000000000     0.068400000000     0.552490000000    -0.15938    
N33      N      0.096330000000     0.392860000000     0.888870000000    -0.180192   
N34      N      0.051900000000     0.438740000000     0.922520000000    -0.159489   
N35      N      0.261440000000     0.234420000000     0.666860000000    -0.181111   
N36      N      0.223930000000     0.274150000000     0.742250000000    -0.158496   
N37      N      0.459160000000     0.463820000000     0.781290000000    -0.182769   
N38      N      0.490980000000     0.493230000000     0.656920000000    -0.160362   
N39      N      0.554550000000     0.550150000000     0.280270000000    -0.181892   
N40      N      0.517450000000     0.513810000000     0.160670000000    -0.159875   
N41      N      0.890770000000     0.219000000000     0.906140000000    -0.182678   
N42      N      0.860830000000     0.190470000000     0.032020000000    -0.159357   
N43      N      0.810600000000     0.141420000000     0.414140000000    -0.180771   
N44      N      0.798670000000     0.126480000000     0.547840000000    -0.160541   
N45      N      0.119530000000     0.336880000000     0.625490000000    -0.181685   
N46      N      0.149440000000     0.338400000000     0.499020000000    -0.157951   
N47      N      0.196570000000     0.334180000000     0.993370000000    -0.180108   
N48      N      0.218500000000     0.339880000000     0.125080000000    -0.159803   
N49      N      0.055600000000     0.274560000000     0.255670000000    -0.180967   
N50      N      0.963760000000     0.230360000000     0.267110000000    -0.159526   
N51      N      0.311090000000     0.406260000000     0.359890000000    -0.180446   
N52      N      0.393010000000     0.449240000000     0.423710000000    -0.159914   
N53      N      0.538770000000     0.017090000000     0.697870000000    -0.179827   
N54      N      0.565540000000     0.021570000000     0.827350000000    -0.16       
N55      N      0.465590000000     0.012920000000     0.183300000000    -0.180836   
N56      N      0.485890000000     0.014140000000     0.315370000000    -0.158013   
N57      N      0.635670000000     0.071170000000     0.093660000000    -0.180476   
N58      N      0.705570000000     0.100090000000     0.182210000000    -0.158962   
N59      N      0.188430000000     0.846180000000     0.502800000000    -0.180885   
N60      N      0.229340000000     0.883840000000     0.620780000000    -0.160397   
N61      N      0.126260000000     0.801730000000     0.122580000000    -0.182498   
N62      N      0.149680000000     0.822400000000     0.991740000000    -0.157882   
N63      N      0.310390000000     0.918080000000     0.886460000000    -0.180599   
N64      N      0.400730000000     0.963930000000     0.914590000000    -0.159368   
N65      N      0.818030000000     0.692540000000     0.794160000000    -0.177535   
N66      N      0.799790000000     0.692650000000     0.927530000000    -0.158639   
N67      N      0.899000000000     0.689890000000     0.427480000000    -0.181183   
N68      N      0.868410000000     0.689940000000     0.301320000000    -0.158229   
N69      N      0.647460000000     0.588850000000     0.527130000000    -0.180861   
N70      N      0.739270000000     0.636260000000     0.531620000000    -0.15941    
N71      N      0.068970000000     0.787560000000     0.726630000000    -0.180393   
N72      N      0.979530000000     0.745990000000     0.692120000000    -0.160167   
O1       O      0.925570000000     0.752510000000     0.639800000000    -0.397894   
O2       O      0.802480000000     0.697850000000     0.566100000000    -0.393445   
O3       O      0.842150000000     0.725080000000     0.693820000000    -0.378016   
O4       O      0.887550000000     0.725900000000     0.512040000000    -0.397617   
O5       O      0.876940000000     0.658080000000     0.528490000000    -0.377663   
O6       O      0.830950000000     0.657050000000     0.709990000000    -0.396756   
O7       O      0.794010000000     0.630790000000     0.582230000000    -0.399186   
O8       O      0.916190000000     0.685180000000     0.656690000000    -0.396719   
O9       O      0.125400000000     0.849750000000     0.773340000000    -0.400824   
O10      O      0.248870000000     0.917510000000     0.846660000000    -0.395761   
O11      O      0.209350000000     0.900400000000     0.718010000000    -0.397049   
O12      O      0.162960000000     0.866160000000     0.901740000000    -0.394484   
O13      O      0.170050000000     0.806230000000     0.894400000000    -0.392823   
O14      O      0.216400000000     0.840420000000     0.710860000000    -0.396458   
O15      O      0.253720000000     0.856520000000     0.838780000000    -0.381749   
O16      O      0.130900000000     0.789030000000     0.766090000000    -0.380538   
O17      O      0.462000000000     0.024750000000     0.955840000000    -0.394173   
O18      O      0.581650000000     0.078080000000     0.041380000000    -0.380523   
O19      O      0.549510000000     0.054920000000     0.910560000000    -0.395886   
O20      O      0.495500000000     0.048640000000     0.087270000000    -0.395156   
O21      O      0.484820000000     0.980610000000     0.101840000000    -0.37746    
O22      O      0.538490000000     0.986680000000     0.924800000000    -0.396676   
O23      O      0.572630000000     0.010780000000     0.055660000000    -0.398107   
O24      O      0.453170000000     0.957470000000     0.971020000000    -0.398263   
O25      O      0.119940000000     0.338830000000     0.277530000000    -0.400776   
O26      O      0.247510000000     0.404250000000     0.329270000000    -0.382855   
O27      O      0.202450000000     0.372160000000     0.209850000000    -0.394743   
O28      O      0.167350000000     0.371300000000     0.398380000000    -0.39163    
O29      O      0.163160000000     0.305860000000     0.412360000000    -0.394855   
O30      O      0.198410000000     0.306850000000     0.224810000000    -0.395172   
O31      O      0.246180000000     0.340470000000     0.344470000000    -0.394641   
O32      O      0.117550000000     0.274450000000     0.291750000000    -0.37668    
O33      O      0.769030000000     0.163590000000     0.208180000000    -0.396356   
O34      O      0.899100000000     0.229850000000     0.248350000000    -0.396002   
O35      O      0.846420000000     0.208940000000     0.132120000000    -0.399185   
O36      O      0.819820000000     0.183730000000     0.323850000000    -0.385939   
O37      O      0.823130000000     0.121770000000     0.313630000000    -0.399517   
O38      O      0.850640000000     0.147500000000     0.121930000000    -0.396996   
O39      O      0.900710000000     0.167000000000     0.238940000000    -0.399864   
O40      O      0.770790000000     0.100930000000     0.196840000000    -0.392924   
O41      O      0.582760000000     0.586200000000     0.499590000000    -0.396671   
O42      O      0.454680000000     0.515140000000     0.447610000000    -0.400041   
O43      O      0.501190000000     0.535890000000     0.567130000000    -0.400036   
O44      O      0.534990000000     0.565340000000     0.378630000000    -0.402156   
O45      O      0.541850000000     0.505390000000     0.369030000000    -0.380993   
O46      O      0.508720000000     0.476270000000     0.558300000000    -0.39897    
O47      O      0.460040000000     0.454310000000     0.438960000000    -0.398246   
O48      O      0.587790000000     0.525420000000     0.489500000000    -0.37866    
O49      O      0.096180000000     0.330520000000     0.851420000000    -0.396317   
O50      O      0.161970000000     0.271370000000     0.782200000000    -0.396795   
O51      O      0.150000000000     0.299030000000     0.907890000000    -0.383769   
O52      O      0.109330000000     0.302580000000     0.724210000000    -0.398319   
O53      O      0.167770000000     0.369540000000     0.709920000000    -0.379815   
O54      O      0.208280000000     0.366040000000     0.892820000000    -0.39871    
O55      O      0.221620000000     0.337320000000     0.767550000000    -0.394329   
O56      O      0.155600000000     0.396350000000     0.836370000000    -0.37609    
O57      O      0.262180000000     0.168980000000     0.658180000000    -0.379458   
O58      O      0.327110000000     0.100670000000     0.641100000000    -0.376128   
O59      O      0.293860000000     0.129290000000     0.747390000000    -0.398711   
O60      O      0.293840000000     0.140800000000     0.552400000000    -0.397853   
O61      O      0.358700000000     0.202960000000     0.557030000000    -0.398822   
O62      O      0.358330000000     0.191800000000     0.753040000000    -0.397644   
O63      O      0.390550000000     0.163900000000     0.646880000000    -0.402919   
O64      O      0.325680000000     0.232180000000     0.662670000000    -0.398386   
O65      O      0.991290000000     0.442130000000     0.956640000000    -0.394595   
O66      O      0.938150000000     0.516430000000     0.015920000000    -0.396313   
O67      O      0.962600000000     0.496160000000     0.893060000000    -0.384835   
O68      O      0.965540000000     0.462400000000     0.080710000000    -0.397194   
O69      O      0.032860000000     0.520320000000     0.091960000000    -0.392836   
O70      O      0.030300000000     0.553680000000     0.903260000000    -0.392682   
O71      O      0.004890000000     0.575040000000     0.026170000000    -0.376243   
O72      O      0.057820000000     0.501120000000     0.968540000000    -0.402283   
O73      O      0.614110000000     0.867540000000     0.323800000000    -0.400079   
O74      O      0.670540000000     0.795810000000     0.271090000000    -0.396395   
O75      O      0.639780000000     0.813740000000     0.390690000000    -0.38161    
O76      O      0.643730000000     0.851250000000     0.203830000000    -0.40309    
O77      O      0.710630000000     0.909010000000     0.219660000000    -0.380339   
O78      O      0.706330000000     0.871740000000     0.407380000000    -0.399474   
O79      O      0.736530000000     0.854760000000     0.287370000000    -0.394659   
O80      O      0.679800000000     0.927050000000     0.339500000000    -0.393044   
O81      O      0.770290000000     0.687860000000     0.148440000000    -0.374981   
O82      O      0.837700000000     0.627460000000     0.092260000000    -0.400009   
O83      O      0.822310000000     0.656430000000     0.214590000000    -0.391069   
O84      O      0.787370000000     0.658130000000     0.026470000000    -0.392805   
O85      O      0.845880000000     0.725330000000     0.014050000000    -0.394536   
O86      O      0.881330000000     0.723100000000     0.201210000000    -0.395251   
O87      O      0.897760000000     0.693230000000     0.078540000000    -0.393422   
O88      O      0.830250000000     0.753650000000     0.136280000000    -0.400143   
O89      O      0.519770000000     0.955450000000     0.491320000000    -0.377973   
O90      O      0.443430000000     0.008180000000     0.533240000000    -0.39767    
O91      O      0.468930000000     0.981140000000     0.415980000000    -0.392858   
O92      O      0.496200000000     0.982080000000     0.608320000000    -0.379437   
O93      O      0.553450000000     0.050180000000     0.597650000000    -0.398809   
O94      O      0.525610000000     0.049720000000     0.406300000000    -0.39482    
O95      O      0.501430000000     0.075920000000     0.524250000000    -0.397302   
O96      O      0.577980000000     0.022580000000     0.480130000000    -0.39399    
O97      O      0.385550000000     0.228150000000     0.126780000000    -0.403812   
O98      O      0.329740000000     0.101920000000     0.190820000000    -0.377518   
O99      O      0.359530000000     0.145470000000     0.067810000000    -0.400903   
O100     O      0.356860000000     0.187250000000     0.250230000000    -0.401175   
O101     O      0.289880000000     0.176760000000     0.232620000000    -0.382296   
O102     O      0.292630000000     0.135350000000     0.050200000000    -0.384625   
O103     O      0.263750000000     0.093670000000     0.173380000000    -0.396123   
O104     O      0.319570000000     0.220490000000     0.110090000000    -0.39615    
O105     O      0.481500000000     0.420960000000     0.981210000000    -0.383846   
O106     O      0.556540000000     0.551790000000     0.945880000000    -0.398732   
O107     O      0.532220000000     0.496780000000     0.059780000000    -0.397579   
O108     O      0.503720000000     0.473420000000     0.868170000000    -0.400392   
O109     O      0.446150000000     0.482870000000     0.881750000000    -0.3821     
O110     O      0.474990000000     0.506970000000     0.072480000000    -0.400103   
O111     O      0.498090000000     0.559940000000     0.957910000000    -0.395124   
O112     O      0.422790000000     0.428180000000     0.994910000000    -0.396193   
O113     O      0.150400000000     0.754940000000     0.318560000000    -0.399558   
O114     O      0.223030000000     0.887180000000     0.289590000000    -0.396179   
O115     O      0.201130000000     0.829710000000     0.399930000000    -0.379256   
O116     O      0.171170000000     0.810150000000     0.208330000000    -0.400637   
O117     O      0.112860000000     0.817980000000     0.225180000000    -0.379629   
O118     O      0.143430000000     0.838400000000     0.417090000000    -0.398562   
O119     O      0.163660000000     0.893200000000     0.305620000000    -0.396818   
O120     O      0.091190000000     0.760890000000     0.336620000000    -0.39535    
O121     O      0.058450000000     0.557970000000     0.459640000000    -0.385123   
O122     O      0.005100000000     0.434230000000     0.534040000000    -0.374765   
O123     O      0.031470000000     0.473490000000     0.406670000000    -0.392428   
O124     O      0.033130000000     0.521760000000     0.586990000000    -0.392078   
O125     O      0.965700000000     0.510490000000     0.571100000000    -0.396539   
O126     O      0.963930000000     0.461940000000     0.391150000000    -0.378057   
O127     O      0.938470000000     0.424850000000     0.518890000000    -0.397621   
O128     O      0.991880000000     0.548820000000     0.443870000000    -0.398115   
O129     O      0.908100000000     0.232820000000     0.681490000000    -0.394134   
O130     O      0.841100000000     0.107710000000     0.752880000000    -0.400279   
O131     O      0.850670000000     0.145540000000     0.627320000000    -0.397654   
O132     O      0.897080000000     0.192450000000     0.807560000000    -0.400422   
O133     O      0.840220000000     0.202610000000     0.825000000000    -0.381752   
O134     O      0.793970000000     0.155990000000     0.644670000000    -0.398999   
O135     O      0.782970000000     0.115720000000     0.770020000000    -0.396235   
O136     O      0.850070000000     0.240880000000     0.699270000000    -0.396024   
O137     O      0.731960000000     0.894610000000     0.791380000000    -0.401446   
O138     O      0.670620000000     0.763750000000     0.836930000000    -0.374047   
O139     O      0.700160000000     0.814770000000     0.718780000000    -0.396197   
O140     O      0.704050000000     0.845530000000     0.909100000000    -0.396749   
O141     O      0.638490000000     0.840200000000     0.900250000000    -0.396253   
O142     O      0.634410000000     0.809030000000     0.709760000000    -0.396744   
O143     O      0.606190000000     0.760520000000     0.827990000000    -0.403674   
O144     O      0.667240000000     0.890770000000     0.782280000000    -0.377573   
O145     O      0.663380000000     0.960180000000     0.777740000000    -0.267959   
O146     O      0.013450000000     0.369030000000     0.562540000000    -0.265894   
O147     O      0.115720000000     0.609330000000     0.381670000000    -0.272074   
O148     O      0.674290000000     0.696020000000     0.865070000000    -0.267204   
O149     O      0.337360000000     0.036390000000     0.218430000000    -0.267751   
O150     O      0.477980000000     0.349140000000     0.982730000000    -0.268902   
O151     O      0.590550000000     0.785030000000     0.487970000000    -0.269763   
O152     O      0.757450000000     0.932320000000     0.117400000000    -0.271241   
O153     O      0.698560000000     0.682490000000     0.173750000000    -0.2671     
O154     O      0.522070000000     0.887650000000     0.470240000000    -0.265603   
O155     O      0.922430000000     0.515900000000     0.798920000000    -0.272125   
O156     O      0.920620000000     0.401500000000     0.305870000000    -0.270525   
O157     O      0.012840000000     0.650160000000     0.039470000000    -0.2652     
O158     O      0.250730000000     0.072020000000     0.966590000000    -0.270822   
O159     O      0.243700000000     0.160940000000     0.333410000000    -0.269567   
O160     O      0.325800000000     0.028790000000     0.627030000000    -0.268804   
O161     O      0.164550000000     0.462150000000     0.893100000000    -0.266832   
O162     O      0.191440000000     0.167170000000     0.662900000000    -0.268688   
O163     O      0.421420000000     0.505060000000     0.780600000000    -0.269854   
O164     O      0.596520000000     0.513500000000     0.279530000000    -0.268074   
O165     O      0.860630000000     0.266910000000     0.906360000000    -0.272044   
O166     O      0.760470000000     0.168320000000     0.414770000000    -0.273582   
O167     O      0.152450000000     0.415630000000     0.626270000000    -0.267547   
O168     O      0.174490000000     0.257730000000     0.994050000000    -0.273167   
O169     O      0.052970000000     0.204170000000     0.257500000000    -0.269019   
O170     O      0.310130000000     0.474900000000     0.363480000000    -0.268632   
O171     O      0.513070000000     0.939540000000     0.697440000000    -0.268922   
O172     O      0.424160000000     0.933810000000     0.183390000000    -0.270639   
O173     O      0.634520000000     0.138570000000     0.112960000000    -0.270713   
O174     O      0.228090000000     0.806690000000     0.497690000000    -0.269169   
O175     O      0.093280000000     0.847200000000     0.123510000000    -0.271215   
O176     O      0.311410000000     0.849440000000     0.893700000000    -0.268465   
O177     O      0.835740000000     0.768090000000     0.788060000000    -0.267983   
O178     O      0.859770000000     0.610510000000     0.428430000000    -0.269878   
O179     O      0.650100000000     0.520930000000     0.532160000000    -0.266585   
O180     O      0.061550000000     0.716500000000     0.746920000000    -0.266386   


