data_structure

_audit_creation_method RASPA-1.0
_audit_creation_date 2023-5-19
_audit_author_name 'Poobodin Mano'

_cell_length_a    43.1643
_cell_length_b    43.196
_cell_length_c    43.1651
_cell_angle_alpha 90
_cell_angle_beta  90
_cell_angle_gamma 90
_cell_volume      80482.4

_symmetry_cell_setting          triclinic
_symmetry_space_group_name_Hall 'P 1'
_symmetry_space_group_name_H-M  'P 1'
_symmetry_Int_Tables_number     1

_symmetry_equiv_pos_as_xyz 'x,y,z'

loop_
_atom_site_label
_atom_site_type_symbol
_atom_site_fract_x
_atom_site_fract_y
_atom_site_fract_z
_atom_site_charge
C1       C      0.498440000000     0.056000000000     0.247360000000     0.413604   
C2       C      0.002580000000     0.433570000000     0.243350000000     0.407549   
C3       C      0.438580000000     0.991640000000     0.244780000000     0.408538   
C4       C      0.061310000000     0.498240000000     0.245800000000     0.414792   
C5       C      0.492430000000     0.181680000000     0.239060000000     0.402401   
C6       C      0.500300000000     0.304300000000     0.238880000000     0.409827   
C7       C      0.494110000000     0.241720000000     0.177870000000     0.402918   
C8       C      0.498980000000     0.244470000000     0.300690000000     0.411976   
C9       C      0.311390000000     0.497080000000     0.252790000000     0.404718   
C10      C      0.188410000000     0.995080000000     0.254810000000     0.392114   
C11      C      0.251530000000     0.497750000000     0.314900000000     0.408456   
C12      C      0.248720000000     0.994550000000     0.191870000000     0.401218   
C13      C      0.238680000000     0.990340000000     0.065020000000     0.399169   
C14      C      0.242510000000     0.503290000000     0.442440000000     0.404957   
C15      C      0.237470000000     0.058400000000     0.010190000000     0.408063   
C16      C      0.243650000000     0.436120000000     0.497220000000     0.420907   
C17      C      0.999450000000     0.246940000000     0.051080000000     0.418592   
C18      C      0.497990000000     0.242690000000     0.428240000000     0.401913   
C19      C      0.060930000000     0.246610000000     0.989760000000     0.400535   
C20      C      0.437760000000     0.243140000000     0.490100000000     0.411674   
C21      C      0.243340000000     0.186020000000     0.002990000000     0.397335   
C22      C      0.251680000000     0.308840000000     0.995430000000     0.404319   
C23      C      0.186070000000     0.253220000000     0.003590000000     0.411525   
C24      C      0.308320000000     0.243120000000     0.995000000000     0.40666    
C25      C      0.358200000000     0.260400000000     0.015300000000    -0.00991684 
C26      C      0.355250000000     0.226400000000     0.467000000000    -0.0285769  
C27      C      0.389160000000     0.269980000000     0.001340000000    -0.0082791  
C28      C      0.389140000000     0.216970000000     0.475120000000     0.0940868  
C29      C      0.110410000000     0.221690000000     0.003840000000    -0.017038   
C30      C      0.109670000000     0.271910000000     0.473680000000    -0.0362827  
C31      C      0.136780000000     0.234210000000     0.024000000000    -0.0078848  
C32      C      0.137780000000     0.283160000000     0.492770000000     0.0940255  
C33      C      0.269680000000     0.358040000000     0.018370000000    -0.0126643  
C34      C      0.248230000000     0.356730000000     0.464260000000    -0.0361122  
C35      C      0.252630000000     0.388410000000     0.024430000000    -0.0110303  
C36      C      0.230060000000     0.386780000000     0.470530000000     0.0928079  
C37      C      0.228440000000     0.135910000000     0.480070000000    -0.0136063  
C38      C      0.264530000000     0.138470000000     0.026050000000    -0.0383441  
C39      C      0.213190000000     0.107060000000     0.493900000000    -0.00906839 
C40      C      0.250860000000     0.107550000000     0.038020000000     0.0942165  
C41      C      0.217760000000     0.994540000000     0.391740000000    -0.0229258  
C42      C      0.266640000000     0.026080000000     0.395750000000    -0.036395   
C43      C      0.230820000000     0.477760000000     0.363540000000    -0.0089893  
C44      C      0.277680000000     0.512340000000     0.364350000000     0.0922295  
C45      C      0.212350000000     0.997820000000     0.115350000000    -0.0251025  
C46      C      0.260260000000     0.465090000000     0.111470000000    -0.033493   
C47      C      0.225800000000     0.014200000000     0.143860000000     0.00127749 
C48      C      0.272910000000     0.479790000000     0.141580000000     0.0917133  
C49      C      0.006840000000     0.214860000000     0.379130000000    -0.010856   
C50      C      0.474410000000     0.263360000000     0.380740000000    -0.0355672  
C51      C      0.021920000000     0.226010000000     0.349060000000    -0.00983024 
C52      C      0.488180000000     0.273390000000     0.349320000000     0.0928603  
C53      C      0.014160000000     0.218900000000     0.129800000000    -0.0118942  
C54      C      0.466630000000     0.252730000000     0.129180000000    -0.0338035  
C55      C      0.024930000000     0.233170000000     0.099300000000    -0.00782384 
C56      C      0.478760000000     0.269250000000     0.099810000000     0.0948643  
C57      C      0.139400000000     0.468030000000     0.243350000000    -0.0134818  
C58      C      0.139760000000     0.516900000000     0.275330000000    -0.0360769  
C59      C      0.110940000000     0.979750000000     0.225810000000    -0.0135516  
C60      C      0.109370000000     0.027180000000     0.259380000000     0.0933759  
C61      C      0.360740000000     0.022850000000     0.239480000000    -0.00981015 
C62      C      0.359790000000     0.976510000000     0.274870000000    -0.0362216  
C63      C      0.389290000000     0.509650000000     0.223020000000    -0.0106914  
C64      C      0.389620000000     0.464290000000     0.259380000000     0.093407   
C65      C      0.485630000000     0.385990000000     0.217810000000    -0.00872491 
C66      C      0.018400000000     0.384260000000     0.267080000000    -0.0293197  
C67      C      0.475310000000     0.354030000000     0.228650000000    -0.00556201 
C68      C      0.027590000000     0.351150000000     0.256390000000     0.0947766  
C69      C      0.464830000000     0.132770000000     0.250760000000    -0.0131801  
C70      C      0.012330000000     0.133220000000     0.216890000000    -0.033969   
C71      C      0.477780000000     0.104630000000     0.268350000000    -0.00964163 
C72      C      0.025340000000     0.105400000000     0.234760000000     0.0948933  
C73      C      0.498440000000     0.056000000000     0.747360000000     0.413596   
C74      C      0.002580000000     0.433570000000     0.743350000000     0.407544   
C75      C      0.438580000000     0.991640000000     0.744780000000     0.408296   
C76      C      0.061310000000     0.498240000000     0.745800000000     0.414779   
C77      C      0.492430000000     0.181680000000     0.739060000000     0.402411   
C78      C      0.500300000000     0.304300000000     0.738890000000     0.409828   
C79      C      0.494110000000     0.241720000000     0.677870000000     0.402922   
C80      C      0.498980000000     0.244470000000     0.800690000000     0.41197    
C81      C      0.311390000000     0.497080000000     0.752790000000     0.40476    
C82      C      0.188410000000     0.995080000000     0.754800000000     0.392095   
C83      C      0.251530000000     0.497750000000     0.814900000000     0.408483   
C84      C      0.248720000000     0.994550000000     0.691870000000     0.401197   
C85      C      0.238680000000     0.990340000000     0.565020000000     0.399375   
C86      C      0.242510000000     0.503290000000     0.942440000000     0.404733   
C87      C      0.237470000000     0.058400000000     0.510190000000     0.40832    
C88      C      0.243650000000     0.436120000000     0.997220000000     0.420692   
C89      C      0.999450000000     0.246940000000     0.551080000000     0.418362   
C90      C      0.497990000000     0.242690000000     0.928240000000     0.401997   
C91      C      0.060930000000     0.246610000000     0.489760000000     0.400361   
C92      C      0.437760000000     0.243140000000     0.990100000000     0.411879   
C93      C      0.243340000000     0.186020000000     0.502990000000     0.399613   
C94      C      0.251680000000     0.308840000000     0.495430000000     0.402172   
C95      C      0.186070000000     0.253220000000     0.503590000000     0.413787   
C96      C      0.308320000000     0.243120000000     0.495010000000     0.404471   
C97      C      0.358200000000     0.260400000000     0.515300000000    -0.00954708 
C98      C      0.355250000000     0.226400000000     0.967000000000    -0.028297   
C99      C      0.389160000000     0.269980000000     0.501340000000    -0.00512152 
C100     C      0.389140000000     0.216970000000     0.975120000000     0.0942552  
C101     C      0.110410000000     0.221690000000     0.503840000000    -0.0135771  
C102     C      0.109670000000     0.271910000000     0.973680000000    -0.0369448  
C103     C      0.136780000000     0.234210000000     0.524000000000    -0.00861083 
C104     C      0.137780000000     0.283160000000     0.992770000000     0.096994   
C105     C      0.269680000000     0.358040000000     0.518370000000    -0.0117329  
C106     C      0.248230000000     0.356730000000     0.964260000000    -0.0359133  
C107     C      0.252630000000     0.388410000000     0.524430000000    -0.00988734 
C108     C      0.230060000000     0.386780000000     0.970530000000     0.0928658  
C109     C      0.228440000000     0.135910000000     0.980070000000    -0.0132006  
C110     C      0.264530000000     0.138470000000     0.526050000000    -0.0381652  
C111     C      0.213190000000     0.107060000000     0.993900000000    -0.00583666 
C112     C      0.250860000000     0.107550000000     0.538020000000     0.0942531  
C113     C      0.217760000000     0.994540000000     0.891740000000    -0.0229155  
C114     C      0.266640000000     0.026080000000     0.895750000000    -0.0363985  
C115     C      0.230820000000     0.477760000000     0.863540000000    -0.00898417 
C116     C      0.277680000000     0.512340000000     0.864360000000     0.092205   
C117     C      0.212350000000     0.997820000000     0.615350000000    -0.0250992  
C118     C      0.260260000000     0.465090000000     0.611470000000    -0.0334951  
C119     C      0.225800000000     0.014200000000     0.643860000000     0.0012678  
C120     C      0.272910000000     0.479790000000     0.641580000000     0.0917164  
C121     C      0.006840000000     0.214860000000     0.879130000000    -0.0108554  
C122     C      0.474410000000     0.263360000000     0.880740000000    -0.035569   
C123     C      0.021920000000     0.226010000000     0.849060000000    -0.00983158 
C124     C      0.488180000000     0.273390000000     0.849320000000     0.0928464  
C125     C      0.014160000000     0.218900000000     0.629800000000    -0.0118888  
C126     C      0.466630000000     0.252730000000     0.629180000000    -0.0338158  
C127     C      0.024930000000     0.233170000000     0.599300000000    -0.00783205 
C128     C      0.478760000000     0.269250000000     0.599810000000     0.0948811  
C129     C      0.139400000000     0.468030000000     0.743350000000    -0.0134744  
C130     C      0.139760000000     0.516900000000     0.775330000000    -0.0360885  
C131     C      0.110940000000     0.979750000000     0.725810000000    -0.013593   
C132     C      0.109370000000     0.027180000000     0.759380000000     0.0934035  
C133     C      0.360740000000     0.022850000000     0.739480000000    -0.00980789 
C134     C      0.359790000000     0.976510000000     0.774860000000    -0.0361432  
C135     C      0.389290000000     0.509650000000     0.723020000000    -0.01071    
C136     C      0.389620000000     0.464290000000     0.759380000000     0.0933524  
C137     C      0.485630000000     0.385990000000     0.717810000000    -0.00868233 
C138     C      0.018400000000     0.384260000000     0.767080000000    -0.0293283  
C139     C      0.475310000000     0.354030000000     0.728650000000    -0.0055713  
C140     C      0.027590000000     0.351150000000     0.756390000000     0.0947788  
C141     C      0.464830000000     0.132770000000     0.750760000000    -0.0131463  
C142     C      0.012330000000     0.133220000000     0.716890000000    -0.0340109  
C143     C      0.477780000000     0.104630000000     0.768350000000    -0.00965611 
C144     C      0.025340000000     0.105400000000     0.734760000000     0.0949118  
C145     C      0.498440000000     0.556000000000     0.247360000000     0.414661   
C146     C      0.002580000000     0.933570000000     0.243350000000     0.407191   
C147     C      0.438580000000     0.491640000000     0.244780000000     0.409357   
C148     C      0.061310000000     0.998240000000     0.245800000000     0.401554   
C149     C      0.492430000000     0.681680000000     0.239060000000     0.402363   
C150     C      0.500300000000     0.804300000000     0.238880000000     0.409859   
C151     C      0.494110000000     0.741720000000     0.177870000000     0.402916   
C152     C      0.498980000000     0.744470000000     0.300690000000     0.411976   
C153     C      0.311390000000     0.997080000000     0.252790000000     0.397447   
C154     C      0.188410000000     0.495080000000     0.254810000000     0.399364   
C155     C      0.251530000000     0.997750000000     0.314900000000     0.401404   
C156     C      0.248720000000     0.494550000000     0.191870000000     0.408259   
C157     C      0.238680000000     0.490340000000     0.065020000000     0.400766   
C158     C      0.242510000000     0.003290000000     0.442440000000     0.411301   
C159     C      0.237470000000     0.558400000000     0.010190000000     0.409077   
C160     C      0.243650000000     0.936120000000     0.497220000000     0.420433   
C161     C      0.999450000000     0.746940000000     0.051080000000     0.418627   
C162     C      0.497990000000     0.742690000000     0.428240000000     0.402178   
C163     C      0.060930000000     0.746610000000     0.989760000000     0.400567   
C164     C      0.437760000000     0.743140000000     0.490100000000     0.411706   
C165     C      0.243340000000     0.686020000000     0.002990000000     0.397318   
C166     C      0.251680000000     0.808840000000     0.995430000000     0.404342   
C167     C      0.186070000000     0.753220000000     0.003590000000     0.411522   
C168     C      0.308320000000     0.743120000000     0.995000000000     0.406681   
C169     C      0.358200000000     0.760400000000     0.015300000000    -0.00991056 
C170     C      0.355250000000     0.726400000000     0.467000000000    -0.0285522  
C171     C      0.389160000000     0.769980000000     0.001340000000    -0.0082707  
C172     C      0.389140000000     0.716970000000     0.475120000000     0.0940873  
C173     C      0.110410000000     0.721690000000     0.003840000000    -0.0170222  
C174     C      0.109670000000     0.771910000000     0.473680000000    -0.0362577  
C175     C      0.136780000000     0.734210000000     0.024000000000    -0.00788191 
C176     C      0.137780000000     0.783160000000     0.492770000000     0.094029   
C177     C      0.269680000000     0.858040000000     0.018370000000    -0.0126375  
C178     C      0.248230000000     0.856730000000     0.464260000000    -0.0360699  
C179     C      0.252630000000     0.888400000000     0.024430000000    -0.0110667  
C180     C      0.230060000000     0.886780000000     0.470530000000     0.0927345  
C181     C      0.228440000000     0.635910000000     0.480070000000    -0.0136448  
C182     C      0.264530000000     0.638470000000     0.026050000000    -0.0382817  
C183     C      0.213190000000     0.607060000000     0.493900000000    -0.0089521  
C184     C      0.250860000000     0.607550000000     0.038020000000     0.0941662  
C185     C      0.217760000000     0.494540000000     0.391740000000    -0.0110421  
C186     C      0.266640000000     0.526080000000     0.395750000000    -0.0343538  
C187     C      0.230820000000     0.977760000000     0.363540000000    -0.00634457 
C188     C      0.277680000000     0.012340000000     0.364350000000     0.102481   
C189     C      0.212350000000     0.497820000000     0.115350000000    -0.0110504  
C190     C      0.260260000000     0.965090000000     0.111470000000    -0.0343085  
C191     C      0.225800000000     0.514200000000     0.143860000000    -0.0108469  
C192     C      0.272910000000     0.979790000000     0.141580000000     0.0918843  
C193     C      0.006840000000     0.714860000000     0.379130000000    -0.0108137  
C194     C      0.474410000000     0.763360000000     0.380740000000    -0.0355098  
C195     C      0.021920000000     0.726010000000     0.349060000000    -0.00984013 
C196     C      0.488180000000     0.773390000000     0.349320000000     0.0928662  
C197     C      0.014160000000     0.718900000000     0.129800000000    -0.0118857  
C198     C      0.466630000000     0.752730000000     0.129180000000    -0.0337813  
C199     C      0.024930000000     0.733170000000     0.099300000000    -0.0078268  
C200     C      0.478760000000     0.769250000000     0.099810000000     0.0948621  
C201     C      0.139400000000     0.968030000000     0.243350000000    -0.0129409  
C202     C      0.139760000000     0.016900000000     0.275330000000    -0.0317164  
C203     C      0.110940000000     0.479750000000     0.225810000000    -0.00843534 
C204     C      0.109370000000     0.527180000000     0.259380000000     0.0941576  
C205     C      0.360740000000     0.522850000000     0.239480000000    -0.0112583  
C206     C      0.359790000000     0.476510000000     0.274870000000    -0.0356745  
C207     C      0.389290000000     0.009650000000     0.223020000000     0.000560399
C208     C      0.389620000000     0.964290000000     0.259380000000     0.0932698  
C209     C      0.485630000000     0.885990000000     0.217810000000    -0.00869943 
C210     C      0.018400000000     0.884270000000     0.267080000000    -0.029237   
C211     C      0.475310000000     0.854030000000     0.228650000000    -0.00554977 
C212     C      0.027590000000     0.851150000000     0.256390000000     0.0947352  
C213     C      0.464830000000     0.632770000000     0.250760000000    -0.0132092  
C214     C      0.012330000000     0.633220000000     0.216890000000    -0.0339013  
C215     C      0.477780000000     0.604630000000     0.268350000000    -0.00956117 
C216     C      0.025340000000     0.605400000000     0.234760000000     0.094839   
C217     C      0.498440000000     0.556000000000     0.747360000000     0.41465    
C218     C      0.002580000000     0.933570000000     0.743350000000     0.407186   
C219     C      0.438580000000     0.491640000000     0.744780000000     0.409113   
C220     C      0.061310000000     0.998240000000     0.745800000000     0.401565   
C221     C      0.492430000000     0.681680000000     0.739060000000     0.402373   
C222     C      0.500300000000     0.804300000000     0.738890000000     0.40986    
C223     C      0.494110000000     0.741720000000     0.677870000000     0.40292    
C224     C      0.498980000000     0.744470000000     0.800690000000     0.41197    
C225     C      0.311390000000     0.997080000000     0.752790000000     0.3975     
C226     C      0.188410000000     0.495080000000     0.754800000000     0.399332   
C227     C      0.251530000000     0.997750000000     0.814900000000     0.401447   
C228     C      0.248720000000     0.494550000000     0.691870000000     0.40823    
C229     C      0.238680000000     0.490340000000     0.565020000000     0.400971   
C230     C      0.242510000000     0.003290000000     0.942440000000     0.411045   
C231     C      0.237470000000     0.558400000000     0.510190000000     0.409335   
C232     C      0.243650000000     0.936120000000     0.997220000000     0.42022    
C233     C      0.999450000000     0.746940000000     0.551080000000     0.418396   
C234     C      0.497990000000     0.742690000000     0.928240000000     0.402263   
C235     C      0.060930000000     0.746610000000     0.489760000000     0.400393   
C236     C      0.437760000000     0.743140000000     0.990100000000     0.411913   
C237     C      0.243340000000     0.686020000000     0.502990000000     0.399608   
C238     C      0.251680000000     0.808840000000     0.495430000000     0.402182   
C239     C      0.186070000000     0.753220000000     0.503590000000     0.413793   
C240     C      0.308320000000     0.743120000000     0.495010000000     0.404477   
C241     C      0.358200000000     0.760400000000     0.515300000000    -0.00953828 
C242     C      0.355250000000     0.726400000000     0.967000000000    -0.0282706  
C243     C      0.389160000000     0.769980000000     0.501340000000    -0.00509687 
C244     C      0.389140000000     0.716970000000     0.975120000000     0.0942571  
C245     C      0.110410000000     0.721690000000     0.503840000000    -0.0135404  
C246     C      0.109670000000     0.771910000000     0.973680000000    -0.0369234  
C247     C      0.136780000000     0.734210000000     0.524000000000    -0.00861276 
C248     C      0.137780000000     0.783160000000     0.992770000000     0.0970141  
C249     C      0.269680000000     0.858040000000     0.518370000000    -0.0117019  
C250     C      0.248230000000     0.856730000000     0.964260000000    -0.03587    
C251     C      0.252630000000     0.888400000000     0.524430000000    -0.00992026 
C252     C      0.230060000000     0.886780000000     0.970530000000     0.0927929  
C253     C      0.228440000000     0.635910000000     0.980070000000    -0.0132367  
C254     C      0.264530000000     0.638470000000     0.526050000000    -0.0381013  
C255     C      0.213190000000     0.607060000000     0.993900000000    -0.0056894  
C256     C      0.250860000000     0.607550000000     0.538020000000     0.0942029  
C257     C      0.217760000000     0.494540000000     0.891740000000    -0.011075   
C258     C      0.266640000000     0.526080000000     0.895750000000    -0.0343629  
C259     C      0.230820000000     0.977760000000     0.863540000000    -0.00634986 
C260     C      0.277680000000     0.012340000000     0.864360000000     0.102425   
C261     C      0.212350000000     0.497820000000     0.615350000000    -0.0110527  
C262     C      0.260260000000     0.965090000000     0.611470000000    -0.0343104  
C263     C      0.225800000000     0.514200000000     0.643860000000    -0.01085    
C264     C      0.272910000000     0.979790000000     0.641580000000     0.0918875  
C265     C      0.006840000000     0.714860000000     0.879130000000    -0.0108133  
C266     C      0.474410000000     0.763360000000     0.880740000000    -0.0355117  
C267     C      0.021920000000     0.726010000000     0.849060000000    -0.00984143 
C268     C      0.488180000000     0.773390000000     0.849320000000     0.0928523  
C269     C      0.014160000000     0.718900000000     0.629800000000    -0.0118803  
C270     C      0.466630000000     0.752730000000     0.629180000000    -0.0337938  
C271     C      0.024930000000     0.733170000000     0.599300000000    -0.00783506 
C272     C      0.478760000000     0.769250000000     0.599810000000     0.094879   
C273     C      0.139400000000     0.968030000000     0.743350000000    -0.0129353  
C274     C      0.139760000000     0.016900000000     0.775330000000    -0.0317354  
C275     C      0.110940000000     0.479750000000     0.725810000000    -0.00848818 
C276     C      0.109370000000     0.527180000000     0.759380000000     0.0941847  
C277     C      0.360740000000     0.522850000000     0.739480000000    -0.0112523  
C278     C      0.359790000000     0.476510000000     0.774860000000    -0.0355962  
C279     C      0.389290000000     0.009650000000     0.723020000000     0.000526083
C280     C      0.389620000000     0.964290000000     0.759380000000     0.0932159  
C281     C      0.485630000000     0.885990000000     0.717810000000    -0.00865689 
C282     C      0.018400000000     0.884270000000     0.767080000000    -0.0292457  
C283     C      0.475310000000     0.854030000000     0.728650000000    -0.00555907 
C284     C      0.027590000000     0.851150000000     0.756390000000     0.0947376  
C285     C      0.464830000000     0.632770000000     0.750760000000    -0.0131753  
C286     C      0.012330000000     0.633220000000     0.716890000000    -0.0339433  
C287     C      0.477780000000     0.604630000000     0.768350000000    -0.00957598 
C288     C      0.025340000000     0.605400000000     0.734760000000     0.0948576  
C289     C      0.998440000000     0.056000000000     0.247360000000     0.412689   
C290     C      0.502580000000     0.433570000000     0.243350000000     0.40664    
C291     C      0.938580000000     0.991640000000     0.244780000000     0.408585   
C292     C      0.561310000000     0.498240000000     0.245800000000     0.41484    
C293     C      0.992430000000     0.181680000000     0.239060000000     0.401551   
C294     C      0.000300000000     0.304300000000     0.238880000000     0.411076   
C295     C      0.994110000000     0.241720000000     0.177870000000     0.402025   
C296     C      0.998980000000     0.244470000000     0.300690000000     0.410423   
C297     C      0.811390000000     0.497080000000     0.252790000000     0.4047     
C298     C      0.688410000000     0.995080000000     0.254810000000     0.392086   
C299     C      0.751530000000     0.497750000000     0.314900000000     0.408462   
C300     C      0.748720000000     0.994550000000     0.191870000000     0.401214   
C301     C      0.738680000000     0.990340000000     0.065020000000     0.399399   
C302     C      0.742510000000     0.503290000000     0.442440000000     0.404943   
C303     C      0.737470000000     0.058400000000     0.010190000000     0.408054   
C304     C      0.743650000000     0.436120000000     0.497220000000     0.420896   
C305     C      0.499450000000     0.246940000000     0.051080000000     0.4186     
C306     C      0.997990000000     0.242690000000     0.428240000000     0.401065   
C307     C      0.560930000000     0.246610000000     0.989760000000     0.400645   
C308     C      0.937770000000     0.243140000000     0.490100000000     0.411818   
C309     C      0.743340000000     0.186020000000     0.002990000000     0.39734    
C310     C      0.751680000000     0.308840000000     0.995430000000     0.404311   
C311     C      0.686080000000     0.253220000000     0.003590000000     0.411608   
C312     C      0.808320000000     0.243120000000     0.995000000000     0.406654   
C313     C      0.858200000000     0.260400000000     0.015300000000    -0.00991195 
C314     C      0.855250000000     0.226400000000     0.467000000000    -0.0285794  
C315     C      0.889160000000     0.269980000000     0.001340000000    -0.00827701 
C316     C      0.889140000000     0.216970000000     0.475120000000     0.0940851  
C317     C      0.610410000000     0.221690000000     0.003840000000    -0.0170317  
C318     C      0.609670000000     0.271910000000     0.473680000000    -0.0362713  
C319     C      0.636780000000     0.234210000000     0.024000000000    -0.00789788 
C320     C      0.637780000000     0.283160000000     0.492770000000     0.0940072  
C321     C      0.769680000000     0.358040000000     0.018370000000    -0.0127105  
C322     C      0.748230000000     0.356730000000     0.464260000000    -0.0361541  
C323     C      0.752640000000     0.388410000000     0.024430000000    -0.0110071  
C324     C      0.730070000000     0.386780000000     0.470530000000     0.0928598  
C325     C      0.728440000000     0.135910000000     0.480070000000    -0.0136085  
C326     C      0.764530000000     0.138470000000     0.026050000000    -0.0383999  
C327     C      0.713190000000     0.107060000000     0.493900000000    -0.0090627  
C328     C      0.750860000000     0.107550000000     0.038020000000     0.094223   
C329     C      0.717760000000     0.994540000000     0.391740000000    -0.0229005  
C330     C      0.766640000000     0.026080000000     0.395750000000    -0.0364075  
C331     C      0.730820000000     0.477760000000     0.363540000000    -0.00903478 
C332     C      0.777680000000     0.512340000000     0.364350000000     0.0922804  
C333     C      0.712350000000     0.997820000000     0.115350000000    -0.0250801  
C334     C      0.760260000000     0.465090000000     0.111470000000    -0.0334791  
C335     C      0.725800000000     0.014200000000     0.143860000000     0.00126464 
C336     C      0.772910000000     0.479790000000     0.141580000000     0.0917101  
C337     C      0.506840000000     0.214860000000     0.379130000000    -0.0124535  
C338     C      0.974410000000     0.263360000000     0.380740000000    -0.0353257  
C339     C      0.521920000000     0.226010000000     0.349060000000    -0.00939118 
C340     C      0.988180000000     0.273390000000     0.349320000000     0.0915516  
C341     C      0.514160000000     0.218900000000     0.129800000000    -0.0123206  
C342     C      0.966630000000     0.252730000000     0.129180000000    -0.0339014  
C343     C      0.524930000000     0.233170000000     0.099300000000    -0.00827346 
C344     C      0.978750000000     0.269250000000     0.099810000000     0.0948567  
C345     C      0.639400000000     0.468030000000     0.243350000000    -0.0134807  
C346     C      0.639760000000     0.516900000000     0.275330000000    -0.036071   
C347     C      0.610940000000     0.979750000000     0.225810000000    -0.0135534  
C348     C      0.609370000000     0.027180000000     0.259380000000     0.093373   
C349     C      0.860740000000     0.022850000000     0.239480000000    -0.00980596 
C350     C      0.859790000000     0.976510000000     0.274870000000    -0.0362128  
C351     C      0.889290000000     0.509650000000     0.223020000000    -0.0106792  
C352     C      0.889620000000     0.464290000000     0.259380000000     0.0933975  
C353     C      0.985630000000     0.385990000000     0.217810000000    -0.0100767  
C354     C      0.518400000000     0.384260000000     0.267080000000    -0.029325   
C355     C      0.975310000000     0.354030000000     0.228650000000    -0.0057656  
C356     C      0.527590000000     0.351150000000     0.256390000000     0.0946587  
C357     C      0.964820000000     0.132770000000     0.250760000000    -0.0133337  
C358     C      0.512340000000     0.133220000000     0.216890000000    -0.035408   
C359     C      0.977770000000     0.104630000000     0.268350000000    -0.00973835 
C360     C      0.525340000000     0.105400000000     0.234760000000     0.0947271  
C361     C      0.998440000000     0.056000000000     0.747360000000     0.412674   
C362     C      0.502580000000     0.433570000000     0.743350000000     0.406628   
C363     C      0.938580000000     0.991640000000     0.744780000000     0.408343   
C364     C      0.561310000000     0.498240000000     0.745800000000     0.414827   
C365     C      0.992430000000     0.181680000000     0.739060000000     0.401554   
C366     C      0.000300000000     0.304300000000     0.738890000000     0.411083   
C367     C      0.994110000000     0.241720000000     0.677870000000     0.402022   
C368     C      0.998980000000     0.244470000000     0.800690000000     0.410407   
C369     C      0.811390000000     0.497080000000     0.752790000000     0.404742   
C370     C      0.688410000000     0.995080000000     0.754800000000     0.392067   
C371     C      0.751530000000     0.497750000000     0.814900000000     0.408489   
C372     C      0.748720000000     0.994550000000     0.691870000000     0.401193   
C373     C      0.738680000000     0.990340000000     0.565020000000     0.399603   
C374     C      0.742510000000     0.503290000000     0.942440000000     0.40472    
C375     C      0.737470000000     0.058400000000     0.510190000000     0.40831    
C376     C      0.743650000000     0.436120000000     0.997220000000     0.420683   
C377     C      0.499450000000     0.246940000000     0.551080000000     0.418369   
C378     C      0.997990000000     0.242690000000     0.928240000000     0.401143   
C379     C      0.560930000000     0.246610000000     0.489760000000     0.400471   
C380     C      0.937770000000     0.243140000000     0.990100000000     0.412023   
C381     C      0.743340000000     0.186020000000     0.502990000000     0.399611   
C382     C      0.751680000000     0.308840000000     0.495430000000     0.40217    
C383     C      0.686080000000     0.253220000000     0.503590000000     0.413865   
C384     C      0.808320000000     0.243120000000     0.495010000000     0.404472   
C385     C      0.858200000000     0.260400000000     0.515300000000    -0.00954312 
C386     C      0.855250000000     0.226400000000     0.967000000000    -0.0283005  
C387     C      0.889160000000     0.269980000000     0.501340000000    -0.00513244 
C388     C      0.889140000000     0.216970000000     0.975120000000     0.094253   
C389     C      0.610410000000     0.221690000000     0.503840000000    -0.0135799  
C390     C      0.609670000000     0.271910000000     0.973680000000    -0.0369312  
C391     C      0.636780000000     0.234210000000     0.524000000000    -0.00862195 
C392     C      0.637780000000     0.283160000000     0.992770000000     0.0969687  
C393     C      0.769680000000     0.358040000000     0.518370000000    -0.0117819  
C394     C      0.748230000000     0.356730000000     0.964260000000    -0.0359557  
C395     C      0.752640000000     0.388410000000     0.524430000000    -0.00986785 
C396     C      0.730070000000     0.386780000000     0.970530000000     0.0929175  
C397     C      0.728440000000     0.135910000000     0.980070000000    -0.013204   
C398     C      0.764530000000     0.138470000000     0.526050000000    -0.0382216  
C399     C      0.713190000000     0.107060000000     0.993900000000    -0.00583937 
C400     C      0.750860000000     0.107550000000     0.538020000000     0.0942595  
C401     C      0.717760000000     0.994540000000     0.891740000000    -0.0228902  
C402     C      0.766640000000     0.026080000000     0.895750000000    -0.0364109  
C403     C      0.730820000000     0.477760000000     0.863540000000    -0.00902967 
C404     C      0.777680000000     0.512340000000     0.864360000000     0.0922558  
C405     C      0.712350000000     0.997820000000     0.615350000000    -0.0250768  
C406     C      0.760260000000     0.465090000000     0.611470000000    -0.0334811  
C407     C      0.725800000000     0.014200000000     0.643860000000     0.00125496 
C408     C      0.772910000000     0.479790000000     0.641580000000     0.0917132  
C409     C      0.506840000000     0.214860000000     0.879130000000    -0.0124621  
C410     C      0.974410000000     0.263360000000     0.880740000000    -0.0353256  
C411     C      0.521920000000     0.226010000000     0.849060000000    -0.00938988 
C412     C      0.988180000000     0.273390000000     0.849320000000     0.091529   
C413     C      0.514160000000     0.218900000000     0.629800000000    -0.0123181  
C414     C      0.966630000000     0.252730000000     0.629180000000    -0.0339145  
C415     C      0.524930000000     0.233170000000     0.599300000000    -0.0082862  
C416     C      0.978750000000     0.269250000000     0.599810000000     0.0948733  
C417     C      0.639400000000     0.468030000000     0.743350000000    -0.0134732  
C418     C      0.639760000000     0.516900000000     0.775330000000    -0.0360825  
C419     C      0.610940000000     0.979750000000     0.725810000000    -0.0135948  
C420     C      0.609370000000     0.027180000000     0.759380000000     0.0934006  
C421     C      0.860740000000     0.022850000000     0.739480000000    -0.00980372 
C422     C      0.859790000000     0.976510000000     0.774860000000    -0.0361343  
C423     C      0.889290000000     0.509650000000     0.723020000000    -0.0106977  
C424     C      0.889620000000     0.464290000000     0.759380000000     0.0933429  
C425     C      0.985630000000     0.385990000000     0.717810000000    -0.0100425  
C426     C      0.518400000000     0.384260000000     0.767080000000    -0.0293336  
C427     C      0.975310000000     0.354030000000     0.728650000000    -0.0057763  
C428     C      0.527590000000     0.351150000000     0.756390000000     0.0946603  
C429     C      0.964820000000     0.132770000000     0.750760000000    -0.0133003  
C430     C      0.512340000000     0.133220000000     0.716890000000    -0.0354588  
C431     C      0.977770000000     0.104630000000     0.768350000000    -0.00975331 
C432     C      0.525340000000     0.105400000000     0.734760000000     0.0947445  
C433     C      0.998440000000     0.556000000000     0.247360000000     0.413751   
C434     C      0.502580000000     0.933570000000     0.243350000000     0.40629    
C435     C      0.938580000000     0.491640000000     0.244780000000     0.409402   
C436     C      0.561310000000     0.998240000000     0.245800000000     0.401586   
C437     C      0.992430000000     0.681680000000     0.239060000000     0.401521   
C438     C      0.000300000000     0.804300000000     0.238880000000     0.411102   
C439     C      0.994110000000     0.741720000000     0.177870000000     0.402031   
C440     C      0.998980000000     0.744470000000     0.300690000000     0.410437   
C441     C      0.811390000000     0.997080000000     0.252790000000     0.397438   
C442     C      0.688410000000     0.495080000000     0.254810000000     0.399334   
C443     C      0.751530000000     0.997750000000     0.314900000000     0.401418   
C444     C      0.748720000000     0.494550000000     0.191870000000     0.408248   
C445     C      0.738680000000     0.490340000000     0.065020000000     0.400994   
C446     C      0.742510000000     0.003290000000     0.442440000000     0.411284   
C447     C      0.737470000000     0.558400000000     0.010190000000     0.409067   
C448     C      0.743650000000     0.936120000000     0.497220000000     0.420423   
C449     C      0.499450000000     0.746940000000     0.051080000000     0.418634   
C450     C      0.997990000000     0.742690000000     0.428240000000     0.401337   
C451     C      0.560930000000     0.746610000000     0.989760000000     0.400678   
C452     C      0.937770000000     0.743140000000     0.490100000000     0.41185    
C453     C      0.743340000000     0.686020000000     0.002990000000     0.397322   
C454     C      0.751680000000     0.808840000000     0.995430000000     0.404333   
C455     C      0.686080000000     0.753220000000     0.003590000000     0.411604   
C456     C      0.808320000000     0.743120000000     0.995000000000     0.406675   
C457     C      0.858200000000     0.760400000000     0.015300000000    -0.0099057  
C458     C      0.855250000000     0.726400000000     0.467000000000    -0.0285548  
C459     C      0.889160000000     0.769980000000     0.001340000000    -0.00826869 
C460     C      0.889140000000     0.716970000000     0.475120000000     0.0940856  
C461     C      0.610410000000     0.721690000000     0.003840000000    -0.0170157  
C462     C      0.609670000000     0.771910000000     0.473680000000    -0.0362463  
C463     C      0.636780000000     0.734210000000     0.024000000000    -0.00789504 
C464     C      0.637780000000     0.783160000000     0.492770000000     0.0940108  
C465     C      0.769680000000     0.858040000000     0.018370000000    -0.0126837  
C466     C      0.748230000000     0.856730000000     0.464260000000    -0.0361118  
C467     C      0.752640000000     0.888400000000     0.024430000000    -0.0110436  
C468     C      0.730070000000     0.886780000000     0.470530000000     0.0927865  
C469     C      0.728440000000     0.635910000000     0.480070000000    -0.013647   
C470     C      0.764530000000     0.638470000000     0.026050000000    -0.0383376  
C471     C      0.713190000000     0.607060000000     0.493900000000    -0.00894639 
C472     C      0.750860000000     0.607550000000     0.038020000000     0.0941729  
C473     C      0.717760000000     0.494540000000     0.391740000000    -0.0110249  
C474     C      0.766640000000     0.526080000000     0.395750000000    -0.0343687  
C475     C      0.730820000000     0.977760000000     0.363540000000    -0.00639212 
C476     C      0.777680000000     0.012340000000     0.364350000000     0.10252    
C477     C      0.712350000000     0.497820000000     0.115350000000    -0.0110361  
C478     C      0.760260000000     0.965090000000     0.111470000000    -0.034294   
C479     C      0.725800000000     0.514200000000     0.143860000000    -0.0108514  
C480     C      0.772910000000     0.979790000000     0.141580000000     0.0918811  
C481     C      0.506840000000     0.714860000000     0.379130000000    -0.0124009  
C482     C      0.974410000000     0.763360000000     0.380740000000    -0.0352706  
C483     C      0.521920000000     0.726010000000     0.349060000000    -0.00940435 
C484     C      0.988180000000     0.773390000000     0.349320000000     0.0915689  
C485     C      0.514160000000     0.718900000000     0.129800000000    -0.0123094  
C486     C      0.966630000000     0.752730000000     0.129180000000    -0.0338785  
C487     C      0.524930000000     0.733170000000     0.099300000000    -0.00827271 
C488     C      0.978750000000     0.769250000000     0.099810000000     0.0948546  
C489     C      0.639400000000     0.968030000000     0.243350000000    -0.0129388  
C490     C      0.639760000000     0.016900000000     0.275330000000    -0.0317099  
C491     C      0.610940000000     0.479750000000     0.225810000000    -0.00843335 
C492     C      0.609370000000     0.527180000000     0.259380000000     0.0941551  
C493     C      0.860740000000     0.522850000000     0.239480000000    -0.0112538  
C494     C      0.859790000000     0.476510000000     0.274870000000    -0.0356681  
C495     C      0.889290000000     0.009650000000     0.223020000000     0.000540798
C496     C      0.889620000000     0.964290000000     0.259380000000     0.0932604  
C497     C      0.985630000000     0.885990000000     0.217810000000    -0.0100375  
C498     C      0.518400000000     0.884270000000     0.267080000000    -0.0292421  
C499     C      0.975310000000     0.854030000000     0.228650000000    -0.00575167 
C500     C      0.527590000000     0.851150000000     0.256390000000     0.0946181  
C501     C      0.964820000000     0.632770000000     0.250760000000    -0.0133621  
C502     C      0.512340000000     0.633220000000     0.216890000000    -0.0353309  
C503     C      0.977770000000     0.604630000000     0.268350000000    -0.00965768 
C504     C      0.525340000000     0.605400000000     0.234760000000     0.0946739  
C505     C      0.998440000000     0.556000000000     0.747360000000     0.413734   
C506     C      0.502580000000     0.933570000000     0.743350000000     0.406279   
C507     C      0.938580000000     0.491640000000     0.744780000000     0.409158   
C508     C      0.561310000000     0.998240000000     0.745800000000     0.401598   
C509     C      0.992430000000     0.681680000000     0.739060000000     0.401525   
C510     C      0.000300000000     0.804300000000     0.738890000000     0.411109   
C511     C      0.994110000000     0.741720000000     0.677870000000     0.402029   
C512     C      0.998980000000     0.744470000000     0.800690000000     0.410421   
C513     C      0.811390000000     0.997080000000     0.752790000000     0.397491   
C514     C      0.688410000000     0.495080000000     0.754800000000     0.399301   
C515     C      0.751530000000     0.997750000000     0.814900000000     0.401461   
C516     C      0.748720000000     0.494550000000     0.691870000000     0.408219   
C517     C      0.738680000000     0.490340000000     0.565020000000     0.401199   
C518     C      0.742510000000     0.003290000000     0.942440000000     0.411029   
C519     C      0.737470000000     0.558400000000     0.510190000000     0.409324   
C520     C      0.743650000000     0.936120000000     0.997220000000     0.420211   
C521     C      0.499450000000     0.746940000000     0.551080000000     0.418402   
C522     C      0.997990000000     0.742690000000     0.928240000000     0.401415   
C523     C      0.560930000000     0.746610000000     0.489760000000     0.400502   
C524     C      0.937770000000     0.743140000000     0.990100000000     0.412056   
C525     C      0.743340000000     0.686020000000     0.502990000000     0.399606   
C526     C      0.751680000000     0.808840000000     0.495430000000     0.402179   
C527     C      0.686080000000     0.753220000000     0.503590000000     0.413871   
C528     C      0.808320000000     0.743120000000     0.495010000000     0.404478   
C529     C      0.858200000000     0.760400000000     0.515300000000    -0.00953435 
C530     C      0.855250000000     0.726400000000     0.967000000000    -0.0282743  
C531     C      0.889160000000     0.769980000000     0.501340000000    -0.0051079  
C532     C      0.889140000000     0.716970000000     0.975120000000     0.0942549  
C533     C      0.610410000000     0.721690000000     0.503840000000    -0.0135431  
C534     C      0.609670000000     0.771910000000     0.973680000000    -0.0369097  
C535     C      0.636780000000     0.734210000000     0.524000000000    -0.00862392 
C536     C      0.637780000000     0.783160000000     0.992770000000     0.0969888  
C537     C      0.769680000000     0.858040000000     0.518370000000    -0.0117509  
C538     C      0.748230000000     0.856730000000     0.964260000000    -0.0359125  
C539     C      0.752640000000     0.888400000000     0.524430000000    -0.00990074 
C540     C      0.730070000000     0.886780000000     0.970530000000     0.0928448  
C541     C      0.728440000000     0.635910000000     0.980070000000    -0.0132401  
C542     C      0.764530000000     0.638470000000     0.526050000000    -0.0381579  
C543     C      0.713190000000     0.607060000000     0.993900000000    -0.00569211 
C544     C      0.750860000000     0.607550000000     0.538020000000     0.0942095  
C545     C      0.717760000000     0.494540000000     0.891740000000    -0.0110577  
C546     C      0.766640000000     0.526080000000     0.895750000000    -0.0343777  
C547     C      0.730820000000     0.977760000000     0.863540000000    -0.00639742 
C548     C      0.777680000000     0.012340000000     0.864360000000     0.102464   
C549     C      0.712350000000     0.497820000000     0.615350000000    -0.0110384  
C550     C      0.760260000000     0.965090000000     0.611470000000    -0.0342958  
C551     C      0.725800000000     0.514200000000     0.643860000000    -0.0108544  
C552     C      0.772910000000     0.979790000000     0.641580000000     0.0918843  
C553     C      0.506840000000     0.714860000000     0.879130000000    -0.0124096  
C554     C      0.974410000000     0.763360000000     0.880740000000    -0.0352707  
C555     C      0.521920000000     0.726010000000     0.849060000000    -0.009403   
C556     C      0.988180000000     0.773390000000     0.849320000000     0.0915463  
C557     C      0.514160000000     0.718900000000     0.629800000000    -0.012307   
C558     C      0.966630000000     0.752730000000     0.629180000000    -0.0338916  
C559     C      0.524930000000     0.733170000000     0.599300000000    -0.0082855  
C560     C      0.978750000000     0.769250000000     0.599810000000     0.0948714  
C561     C      0.639400000000     0.968030000000     0.743350000000    -0.0129332  
C562     C      0.639760000000     0.016900000000     0.775330000000    -0.0317288  
C563     C      0.610940000000     0.479750000000     0.725810000000    -0.00848617 
C564     C      0.609370000000     0.527180000000     0.759380000000     0.0941822  
C565     C      0.860740000000     0.522850000000     0.739480000000    -0.0112479  
C566     C      0.859790000000     0.476510000000     0.774860000000    -0.0355897  
C567     C      0.889290000000     0.009650000000     0.723020000000     0.00050665 
C568     C      0.889620000000     0.964290000000     0.759380000000     0.0932064  
C569     C      0.985630000000     0.885990000000     0.717810000000    -0.0100033  
C570     C      0.518400000000     0.884270000000     0.767080000000    -0.0292509  
C571     C      0.975310000000     0.854030000000     0.728650000000    -0.00576239 
C572     C      0.527590000000     0.851150000000     0.756390000000     0.0946198  
C573     C      0.964820000000     0.632770000000     0.750760000000    -0.0133286  
C574     C      0.512340000000     0.633220000000     0.716890000000    -0.0353818  
C575     C      0.977770000000     0.604630000000     0.768350000000    -0.00967297 
C576     C      0.525340000000     0.605400000000     0.734760000000     0.0946913  
Cu1      Cu     0.500190000000     0.495620000000     0.216930000000     0.861963   
Cu2      Cu     0.999800000000     0.994000000000     0.273760000000     0.853776   
Cu3      Cu     0.467960000000     0.245130000000     0.240310000000     0.866866   
Cu4      Cu     0.024990000000     0.240800000000     0.238300000000     0.86202    
Cu5      Cu     0.249470000000     0.024530000000     0.252630000000     0.856352   
Cu6      Cu     0.250300000000     0.467770000000     0.254160000000     0.860909   
Cu7      Cu     0.269080000000     0.998440000000     0.505130000000     0.856655   
Cu8      Cu     0.212050000000     0.495890000000     0.002460000000     0.851566   
Cu9      Cu     0.000510000000     0.216240000000     0.490610000000     0.859913   
Cu10     Cu     0.498140000000     0.273370000000     0.988830000000     0.868801   
Cu11     Cu     0.249510000000     0.249050000000     0.027700000000     0.854831   
Cu12     Cu     0.244680000000     0.245850000000     0.470850000000     0.856955   
Cu13     Cu     0.500190000000     0.495620000000     0.716930000000     0.86201    
Cu14     Cu     0.999800000000     0.994000000000     0.773760000000     0.853799   
Cu15     Cu     0.467960000000     0.245130000000     0.740310000000     0.866852   
Cu16     Cu     0.024990000000     0.240800000000     0.738300000000     0.862021   
Cu17     Cu     0.249470000000     0.024530000000     0.752640000000     0.856303   
Cu18     Cu     0.250300000000     0.467770000000     0.754160000000     0.860926   
Cu19     Cu     0.269080000000     0.998440000000     0.005130000000     0.854047   
Cu20     Cu     0.212050000000     0.495890000000     0.502460000000     0.854273   
Cu21     Cu     0.000510000000     0.216240000000     0.990610000000     0.861513   
Cu22     Cu     0.498140000000     0.273370000000     0.488830000000     0.867233   
Cu23     Cu     0.249510000000     0.249050000000     0.527700000000     0.856203   
Cu24     Cu     0.244680000000     0.245850000000     0.970840000000     0.858433   
Cu25     Cu     0.500190000000     0.995620000000     0.216930000000     0.856495   
Cu26     Cu     0.999800000000     0.494000000000     0.273760000000     0.864124   
Cu27     Cu     0.467960000000     0.745130000000     0.240310000000     0.866881   
Cu28     Cu     0.024990000000     0.740810000000     0.238300000000     0.862031   
Cu29     Cu     0.249470000000     0.524530000000     0.252630000000     0.852582   
Cu30     Cu     0.250300000000     0.967770000000     0.254160000000     0.854513   
Cu31     Cu     0.269080000000     0.498440000000     0.505130000000     0.866038   
Cu32     Cu     0.212050000000     0.995890000000     0.002460000000     0.846974   
Cu33     Cu     0.000510000000     0.716240000000     0.490610000000     0.8596     
Cu34     Cu     0.498140000000     0.773370000000     0.988830000000     0.868738   
Cu35     Cu     0.249510000000     0.749050000000     0.027700000000     0.85485    
Cu36     Cu     0.244680000000     0.745850000000     0.470850000000     0.856988   
Cu37     Cu     0.500190000000     0.995620000000     0.716930000000     0.856546   
Cu38     Cu     0.999800000000     0.494000000000     0.773760000000     0.864126   
Cu39     Cu     0.467960000000     0.745130000000     0.740310000000     0.866866   
Cu40     Cu     0.024990000000     0.740810000000     0.738300000000     0.862031   
Cu41     Cu     0.249470000000     0.524530000000     0.752640000000     0.852538   
Cu42     Cu     0.250300000000     0.967770000000     0.754160000000     0.854539   
Cu43     Cu     0.269080000000     0.498440000000     0.005130000000     0.863413   
Cu44     Cu     0.212050000000     0.995890000000     0.502460000000     0.849686   
Cu45     Cu     0.000510000000     0.716240000000     0.990610000000     0.861214   
Cu46     Cu     0.498140000000     0.773370000000     0.488830000000     0.867159   
Cu47     Cu     0.249510000000     0.749050000000     0.527700000000     0.856229   
Cu48     Cu     0.244680000000     0.745850000000     0.970840000000     0.858475   
Cu49     Cu     0.000190000000     0.495620000000     0.216930000000     0.864103   
Cu50     Cu     0.499800000000     0.994000000000     0.273760000000     0.855683   
Cu51     Cu     0.967960000000     0.245130000000     0.240310000000     0.866182   
Cu52     Cu     0.524990000000     0.240800000000     0.238300000000     0.861455   
Cu53     Cu     0.749480000000     0.024530000000     0.252630000000     0.856224   
Cu54     Cu     0.750300000000     0.467770000000     0.254160000000     0.860926   
Cu55     Cu     0.769070000000     0.998440000000     0.505130000000     0.856629   
Cu56     Cu     0.712050000000     0.495890000000     0.002460000000     0.85143    
Cu57     Cu     0.500510000000     0.216240000000     0.490610000000     0.857866   
Cu58     Cu     0.998140000000     0.273370000000     0.988830000000     0.867337   
Cu59     Cu     0.749510000000     0.249050000000     0.027700000000     0.854841   
Cu60     Cu     0.744680000000     0.245850000000     0.470850000000     0.856959   
Cu61     Cu     0.000190000000     0.495620000000     0.716930000000     0.864163   
Cu62     Cu     0.499800000000     0.994000000000     0.773760000000     0.855719   
Cu63     Cu     0.967960000000     0.245130000000     0.740310000000     0.866162   
Cu64     Cu     0.524990000000     0.240800000000     0.738300000000     0.861453   
Cu65     Cu     0.749480000000     0.024530000000     0.752640000000     0.856174   
Cu66     Cu     0.750300000000     0.467770000000     0.754160000000     0.860942   
Cu67     Cu     0.769070000000     0.998440000000     0.005130000000     0.85403    
Cu68     Cu     0.712050000000     0.495890000000     0.502460000000     0.854129   
Cu69     Cu     0.500510000000     0.216240000000     0.990610000000     0.859459   
Cu70     Cu     0.998140000000     0.273370000000     0.488830000000     0.865788   
Cu71     Cu     0.749510000000     0.249050000000     0.527700000000     0.85621    
Cu72     Cu     0.744680000000     0.245850000000     0.970840000000     0.858433   
Cu73     Cu     0.000190000000     0.995620000000     0.216930000000     0.85862    
Cu74     Cu     0.499800000000     0.494000000000     0.273760000000     0.866088   
Cu75     Cu     0.967960000000     0.745130000000     0.240310000000     0.866203   
Cu76     Cu     0.524990000000     0.740810000000     0.238300000000     0.861469   
Cu77     Cu     0.749480000000     0.524530000000     0.252630000000     0.852457   
Cu78     Cu     0.750300000000     0.967770000000     0.254160000000     0.854535   
Cu79     Cu     0.769070000000     0.498440000000     0.505130000000     0.865999   
Cu80     Cu     0.712050000000     0.995890000000     0.002460000000     0.846841   
Cu81     Cu     0.500510000000     0.716240000000     0.490610000000     0.857563   
Cu82     Cu     0.998140000000     0.773370000000     0.988830000000     0.867289   
Cu83     Cu     0.749510000000     0.749050000000     0.027700000000     0.85486    
Cu84     Cu     0.744680000000     0.745850000000     0.470850000000     0.856992   
Cu85     Cu     0.000190000000     0.995620000000     0.716930000000     0.858685   
Cu86     Cu     0.499800000000     0.494000000000     0.773760000000     0.866104   
Cu87     Cu     0.967960000000     0.745130000000     0.740310000000     0.866183   
Cu88     Cu     0.524990000000     0.740810000000     0.738300000000     0.861466   
Cu89     Cu     0.749480000000     0.524530000000     0.752640000000     0.852413   
Cu90     Cu     0.750300000000     0.967770000000     0.754160000000     0.854562   
Cu91     Cu     0.769070000000     0.498440000000     0.005130000000     0.863382   
Cu92     Cu     0.712050000000     0.995890000000     0.502460000000     0.849545   
Cu93     Cu     0.500510000000     0.716240000000     0.990610000000     0.859171   
Cu94     Cu     0.998140000000     0.773370000000     0.488830000000     0.865729   
Cu95     Cu     0.749510000000     0.749050000000     0.527700000000     0.856236   
Cu96     Cu     0.744680000000     0.745850000000     0.970840000000     0.858476   
H1       H      0.385000000000     0.286050000000     0.981650000000     0.0502496  
H2       H      0.345540000000     0.281630000000     0.022650000000     0.0477491  
H3       H      0.400910000000     0.211800000000     0.452690000000     0.0358248  
H4       H      0.355860000000     0.242330000000     0.446770000000     0.0533246  
H5       H      0.402660000000     0.282760000000     0.019210000000     0.0629628  
H6       H      0.362130000000     0.246370000000     0.036500000000     0.0718619  
H7       H      0.341630000000     0.205820000000     0.459630000000     0.069553   
H8       H      0.126610000000     0.246070000000     0.044480000000     0.0456327  
H9       H      0.095710000000     0.206220000000     0.018270000000     0.0472288  
H10      H      0.127800000000     0.295900000000     0.012910000000     0.037764   
H11      H      0.094680000000     0.292000000000     0.467800000000     0.0713068  
H12      H      0.151300000000     0.214570000000     0.032270000000     0.0419491  
H13      H      0.120570000000     0.207660000000     0.484770000000     0.0488836  
H14      H      0.117830000000     0.261730000000     0.451490000000     0.0694583  
H15      H      0.230510000000     0.383000000000     0.036490000000     0.048987   
H16      H      0.271270000000     0.344760000000     0.040370000000     0.0511784  
H17      H      0.206650000000     0.379790000000     0.978880000000     0.0499017  
H18      H      0.234680000000     0.342190000000     0.447850000000     0.0718855  
H19      H      0.266750000000     0.403010000000     0.040350000000     0.0439476  
H20      H      0.293740000000     0.363700000000     0.511080000000     0.0494827  
H21      H      0.270670000000     0.362560000000     0.453010000000     0.0690401  
H22      H      0.193550000000     0.114420000000     0.008880000000     0.0441747  
H23      H      0.210540000000     0.149500000000     0.467450000000     0.0478843  
H24      H      0.231900000000     0.114180000000     0.054270000000     0.0367799  
H25      H      0.270690000000     0.153300000000     0.046190000000     0.0742269  
H26      H      0.203750000000     0.092690000000     0.474680000000     0.0466665  
H27      H      0.246360000000     0.128520000000     0.463100000000     0.0533491  
H28      H      0.286340000000     0.133960000000     0.513150000000     0.0766114  
H29      H      0.243930000000     0.457040000000     0.371460000000     0.0615282  
H30      H      0.202560000000     0.478250000000     0.404670000000     0.0633644  
H31      H      0.293370000000     0.492770000000     0.370450000000     0.0426334  
H32      H      0.287070000000     0.030100000000     0.410910000000     0.0737395  
H33      H      0.211210000000     0.469800000000     0.348780000000     0.0499275  
H34      H      0.203370000000     0.014330000000     0.383700000000     0.0579319  
H35      H      0.255670000000     0.049010000000     0.391830000000     0.0693774  
H36      H      0.238310000000     0.035340000000     0.136120000000     0.0538152  
H37      H      0.197600000000     0.014400000000     0.102270000000     0.0562393  
H38      H      0.287930000000     0.999400000000     0.134060000000     0.0415975  
H39      H      0.279860000000     0.458970000000     0.095900000000     0.069147   
H40      H      0.206380000000     0.021510000000     0.159180000000     0.0462205  
H41      H      0.197590000000     0.478260000000     0.123280000000     0.0490107  
H42      H      0.247970000000     0.443200000000     0.117100000000     0.0664102  
H43      H      0.043290000000     0.239190000000     0.354870000000     0.0499633  
H44      H      0.024150000000     0.201330000000     0.392600000000     0.0490413  
H45      H      0.508590000000     0.288190000000     0.354980000000     0.0394692  
H46      H      0.469430000000     0.284260000000     0.394930000000     0.0713005  
H47      H      0.028670000000     0.205510000000     0.334960000000     0.0471039  
H48      H      0.987170000000     0.199300000000     0.373260000000     0.0500984  
H49      H      0.451990000000     0.251320000000     0.376910000000     0.0686522  
H50      H      0.042500000000     0.251200000000     0.104710000000     0.0455346  
H51      H      0.034710000000     0.212570000000     0.144000000000     0.049081   
H52      H      0.493100000000     0.289250000000     0.107570000000     0.0408664  
H53      H      0.453350000000     0.269470000000     0.143600000000     0.0694729  
H54      H      0.036600000000     0.215130000000     0.085040000000     0.0440343  
H55      H      0.001630000000     0.197070000000     0.124360000000     0.0498035  
H56      H      0.450840000000     0.233500000000     0.122570000000     0.0732314  
H57      H      0.118770000000     0.992860000000     0.205060000000     0.0496609  
H58      H      0.153740000000     0.453890000000     0.227280000000     0.0526032  
H59      H      0.116580000000     0.041890000000     0.239400000000     0.0476647  
H60      H      0.153990000000     0.037660000000     0.280810000000     0.0712884  
H61      H      0.097060000000     0.459520000000     0.217860000000     0.0519064  
H62      H      0.131570000000     0.452890000000     0.262660000000     0.0553143  
H63      H      0.134340000000     0.505370000000     0.297690000000     0.0692021  
H64      H      0.381460000000     0.495550000000     0.202930000000     0.0547526  
H65      H      0.346560000000     0.035900000000     0.222370000000     0.0533901  
H66      H      0.381710000000     0.448840000000     0.240240000000     0.0428145  
H67      H      0.345240000000     0.456620000000     0.282330000000     0.0750654  
H68      H      0.403520000000     0.029200000000     0.214090000000     0.047769   
H69      H      0.368580000000     0.039280000000     0.257710000000     0.0541098  
H70      H      0.365890000000     0.989790000000     0.296050000000     0.073776   
H71      H      0.458300000000     0.356650000000     0.247840000000     0.0592862  
H72      H      0.464760000000     0.399500000000     0.210970000000     0.0513582  
H73      H      0.032260000000     0.337630000000     0.277920000000     0.0401711  
H74      H      0.002060000000     0.382190000000     0.286900000000     0.0633155  
H75      H      0.463350000000     0.342110000000     0.209170000000     0.0517141  
H76      H      0.500290000000     0.383800000000     0.196790000000     0.0650843  
H77      H      0.039040000000     0.396890000000     0.275960000000     0.0707215  
H78      H      0.490280000000     0.113030000000     0.289250000000     0.0509169  
H79      H      0.451060000000     0.147280000000     0.267010000000     0.0494973  
H80      H      0.038670000000     0.115300000000     0.254570000000     0.0472897  
H81      H      0.031690000000     0.147940000000     0.208400000000     0.069909   
H82      H      0.458180000000     0.089770000000     0.276100000000     0.0479432  
H83      H      0.449130000000     0.124300000000     0.232170000000     0.0494308  
H84      H      0.999410000000     0.124840000000     0.196250000000     0.0668639  
H85      H      0.385000000000     0.286050000000     0.481650000000     0.048612   
H86      H      0.345540000000     0.281630000000     0.522650000000     0.0480673  
H87      H      0.400910000000     0.211800000000     0.952690000000     0.0357994  
H88      H      0.355860000000     0.242330000000     0.946770000000     0.0533284  
H89      H      0.402660000000     0.282760000000     0.519210000000     0.0627494  
H90      H      0.362130000000     0.246370000000     0.536500000000     0.0719724  
H91      H      0.341630000000     0.205820000000     0.959630000000     0.069668   
H92      H      0.126610000000     0.246070000000     0.544490000000     0.0459452  
H93      H      0.095710000000     0.206220000000     0.518270000000     0.0470102  
H94      H      0.127800000000     0.295900000000     0.512910000000     0.0395258  
H95      H      0.094680000000     0.292000000000     0.967800000000     0.0716398  
H96      H      0.151300000000     0.214570000000     0.532270000000     0.0423103  
H97      H      0.120570000000     0.207660000000     0.984770000000     0.0506717  
H98      H      0.117830000000     0.261730000000     0.951490000000     0.0696624  
H99      H      0.230510000000     0.383000000000     0.536490000000     0.0491801  
H100     H      0.271270000000     0.344760000000     0.540370000000     0.0511518  
H101     H      0.206650000000     0.379790000000     0.478880000000     0.0495863  
H102     H      0.234680000000     0.342190000000     0.947850000000     0.0718557  
H103     H      0.266750000000     0.403010000000     0.540350000000     0.04402    
H104     H      0.293740000000     0.363700000000     0.011080000000     0.0491054  
H105     H      0.270670000000     0.362560000000     0.953010000000     0.0692116  
H106     H      0.193550000000     0.114420000000     0.508880000000     0.0458574  
H107     H      0.210540000000     0.149500000000     0.967450000000     0.0481598  
H108     H      0.231900000000     0.114180000000     0.554270000000     0.0368445  
H109     H      0.270690000000     0.153300000000     0.546190000000     0.0742329  
H110     H      0.203750000000     0.092690000000     0.974680000000     0.0464746  
H111     H      0.246360000000     0.128520000000     0.963100000000     0.0536287  
H112     H      0.286340000000     0.133960000000     0.013150000000     0.0762469  
H113     H      0.243930000000     0.457040000000     0.871460000000     0.0615475  
H114     H      0.202560000000     0.478250000000     0.904670000000     0.0634554  
H115     H      0.293370000000     0.492770000000     0.870450000000     0.0426913  
H116     H      0.287070000000     0.030100000000     0.910920000000     0.0739017  
H117     H      0.211210000000     0.469800000000     0.848780000000     0.0499482  
H118     H      0.203370000000     0.014330000000     0.883700000000     0.0580013  
H119     H      0.255670000000     0.049010000000     0.891830000000     0.0694722  
H120     H      0.238310000000     0.035340000000     0.636120000000     0.0538212  
H121     H      0.197600000000     0.014400000000     0.602270000000     0.056293   
H122     H      0.287930000000     0.999400000000     0.634060000000     0.0416227  
H123     H      0.279860000000     0.458970000000     0.595900000000     0.0692459  
H124     H      0.206380000000     0.021510000000     0.659180000000     0.0462292  
H125     H      0.197590000000     0.478260000000     0.623280000000     0.0490771  
H126     H      0.247970000000     0.443200000000     0.617100000000     0.0664674  
H127     H      0.043290000000     0.239190000000     0.854870000000     0.0499736  
H128     H      0.024150000000     0.201330000000     0.892600000000     0.0490991  
H129     H      0.508590000000     0.288190000000     0.854970000000     0.0394898  
H130     H      0.469430000000     0.284260000000     0.894930000000     0.0713489  
H131     H      0.028670000000     0.205510000000     0.834960000000     0.0471202  
H132     H      0.987170000000     0.199300000000     0.873260000000     0.0501316  
H133     H      0.451990000000     0.251320000000     0.876910000000     0.0686626  
H134     H      0.042500000000     0.251200000000     0.604710000000     0.0456284  
H135     H      0.034710000000     0.212570000000     0.644000000000     0.0491108  
H136     H      0.493100000000     0.289250000000     0.607570000000     0.0409441  
H137     H      0.453350000000     0.269470000000     0.643600000000     0.0694866  
H138     H      0.036600000000     0.215130000000     0.585040000000     0.0442008  
H139     H      0.001630000000     0.197070000000     0.624360000000     0.0498803  
H140     H      0.450840000000     0.233500000000     0.622570000000     0.0732756  
H141     H      0.118770000000     0.992860000000     0.705060000000     0.049693   
H142     H      0.153740000000     0.453890000000     0.727280000000     0.0526077  
H143     H      0.116580000000     0.041890000000     0.739400000000     0.0476549  
H144     H      0.153990000000     0.037660000000     0.780810000000     0.0713084  
H145     H      0.097060000000     0.459520000000     0.717860000000     0.0519427  
H146     H      0.131570000000     0.452890000000     0.762660000000     0.0553282  
H147     H      0.134340000000     0.505370000000     0.797690000000     0.0692393  
H148     H      0.381460000000     0.495550000000     0.702930000000     0.0547867  
H149     H      0.346560000000     0.035900000000     0.722370000000     0.0533986  
H150     H      0.381710000000     0.448840000000     0.740240000000     0.0428311  
H151     H      0.345240000000     0.456620000000     0.782320000000     0.0750478  
H152     H      0.403520000000     0.029200000000     0.714090000000     0.0478015  
H153     H      0.368580000000     0.039280000000     0.757710000000     0.0541148  
H154     H      0.365890000000     0.989790000000     0.796050000000     0.0737719  
H155     H      0.458300000000     0.356650000000     0.747840000000     0.0592877  
H156     H      0.464760000000     0.399500000000     0.710970000000     0.0513711  
H157     H      0.032260000000     0.337630000000     0.777920000000     0.0401711  
H158     H      0.002060000000     0.382190000000     0.786900000000     0.0633381  
H159     H      0.463350000000     0.342110000000     0.709170000000     0.0517388  
H160     H      0.500290000000     0.383800000000     0.696780000000     0.0651064  
H161     H      0.039040000000     0.396890000000     0.775960000000     0.070743   
H162     H      0.490280000000     0.113030000000     0.789250000000     0.0509482  
H163     H      0.451060000000     0.147280000000     0.767010000000     0.0494995  
H164     H      0.038670000000     0.115300000000     0.754570000000     0.0472938  
H165     H      0.031690000000     0.147940000000     0.708400000000     0.0699317  
H166     H      0.458180000000     0.089770000000     0.776100000000     0.0479663  
H167     H      0.449130000000     0.124300000000     0.732170000000     0.0494324  
H168     H      0.999410000000     0.124840000000     0.696250000000     0.0668975  
H169     H      0.385000000000     0.786050000000     0.981650000000     0.0501888  
H170     H      0.345540000000     0.781630000000     0.022650000000     0.0477181  
H171     H      0.400910000000     0.711800000000     0.452690000000     0.0357496  
H172     H      0.355860000000     0.742330000000     0.446770000000     0.0533019  
H173     H      0.402660000000     0.782760000000     0.019210000000     0.0629018  
H174     H      0.362130000000     0.746370000000     0.036500000000     0.0718398  
H175     H      0.341630000000     0.705820000000     0.459630000000     0.0695031  
H176     H      0.126610000000     0.746070000000     0.044480000000     0.0455986  
H177     H      0.095710000000     0.706220000000     0.018270000000     0.0470754  
H178     H      0.127800000000     0.795910000000     0.012910000000     0.0377072  
H179     H      0.094680000000     0.792000000000     0.467800000000     0.0712218  
H180     H      0.151300000000     0.714570000000     0.032270000000     0.0418709  
H181     H      0.120570000000     0.707660000000     0.484770000000     0.0487608  
H182     H      0.117830000000     0.761730000000     0.451490000000     0.0694261  
H183     H      0.230510000000     0.883000000000     0.036490000000     0.0489503  
H184     H      0.271270000000     0.844760000000     0.040370000000     0.0511515  
H185     H      0.206650000000     0.879790000000     0.978880000000     0.0498374  
H186     H      0.234680000000     0.842190000000     0.447850000000     0.0718578  
H187     H      0.266750000000     0.903010000000     0.040350000000     0.0439006  
H188     H      0.293740000000     0.863700000000     0.511080000000     0.0493529  
H189     H      0.270670000000     0.862560000000     0.453010000000     0.0689417  
H190     H      0.193550000000     0.614420000000     0.008880000000     0.0437928  
H191     H      0.210540000000     0.649500000000     0.467450000000     0.0477839  
H192     H      0.231900000000     0.614180000000     0.054270000000     0.0365186  
H193     H      0.270690000000     0.653300000000     0.046190000000     0.0741619  
H194     H      0.203750000000     0.592690000000     0.474680000000     0.0461665  
H195     H      0.246360000000     0.628520000000     0.463100000000     0.0532312  
H196     H      0.286340000000     0.633960000000     0.513150000000     0.076482   
H197     H      0.243930000000     0.957040000000     0.371460000000     0.0605171  
H198     H      0.202560000000     0.978250000000     0.404670000000     0.0648091  
H199     H      0.293370000000     0.992770000000     0.370450000000     0.0367006  
H200     H      0.287070000000     0.530100000000     0.410910000000     0.0724428  
H201     H      0.211210000000     0.969800000000     0.348780000000     0.0485127  
H202     H      0.203370000000     0.514330000000     0.383700000000     0.0515982  
H203     H      0.255670000000     0.549000000000     0.391830000000     0.0686695  
H204     H      0.238310000000     0.535340000000     0.136120000000     0.0548875  
H205     H      0.197600000000     0.514400000000     0.102270000000     0.049042   
H206     H      0.287930000000     0.499400000000     0.134060000000     0.0432164  
H207     H      0.279860000000     0.958970000000     0.095900000000     0.0690596  
H208     H      0.206380000000     0.521510000000     0.159180000000     0.0470909  
H209     H      0.197590000000     0.978260000000     0.123280000000     0.0509167  
H210     H      0.247970000000     0.943200000000     0.117100000000     0.0665963  
H211     H      0.043290000000     0.739190000000     0.354870000000     0.049938   
H212     H      0.024150000000     0.701330000000     0.392600000000     0.0488827  
H213     H      0.508590000000     0.788190000000     0.354980000000     0.0394186  
H214     H      0.469430000000     0.784260000000     0.394930000000     0.0712251  
H215     H      0.028670000000     0.705510000000     0.334960000000     0.0470347  
H216     H      0.987170000000     0.699300000000     0.373260000000     0.0499492  
H217     H      0.451990000000     0.751310000000     0.376910000000     0.0686039  
H218     H      0.042500000000     0.751200000000     0.104710000000     0.0455019  
H219     H      0.034710000000     0.712580000000     0.144000000000     0.0490174  
H220     H      0.493100000000     0.789250000000     0.107570000000     0.0408085  
H221     H      0.453350000000     0.769470000000     0.143600000000     0.0694567  
H222     H      0.036600000000     0.715130000000     0.085040000000     0.0439142  
H223     H      0.001630000000     0.697070000000     0.124360000000     0.0496311  
H224     H      0.450840000000     0.733500000000     0.122570000000     0.0731598  
H225     H      0.118770000000     0.492860000000     0.205060000000     0.0502834  
H226     H      0.153740000000     0.953890000000     0.227280000000     0.0522908  
H227     H      0.116580000000     0.541890000000     0.239400000000     0.0463314  
H228     H      0.153990000000     0.537660000000     0.280810000000     0.0715111  
H229     H      0.097060000000     0.959520000000     0.217860000000     0.0526861  
H230     H      0.131570000000     0.952890000000     0.262660000000     0.054314   
H231     H      0.134340000000     0.005370000000     0.297690000000     0.0702396  
H232     H      0.381460000000     0.995550000000     0.202930000000     0.0489703  
H233     H      0.346560000000     0.535900000000     0.222370000000     0.0523231  
H234     H      0.381710000000     0.948840000000     0.240240000000     0.0426381  
H235     H      0.345240000000     0.956610000000     0.282330000000     0.075023   
H236     H      0.403520000000     0.529200000000     0.214090000000     0.0483963  
H237     H      0.368580000000     0.539280000000     0.257710000000     0.0531066  
H238     H      0.365890000000     0.489800000000     0.296050000000     0.0751247  
H239     H      0.458300000000     0.856650000000     0.247840000000     0.0592797  
H240     H      0.464760000000     0.899500000000     0.210970000000     0.0512649  
H241     H      0.032260000000     0.837630000000     0.277920000000     0.0401406  
H242     H      0.002060000000     0.882190000000     0.286900000000     0.063162   
H243     H      0.463350000000     0.842100000000     0.209170000000     0.0516886  
H244     H      0.500290000000     0.883800000000     0.196790000000     0.0649374  
H245     H      0.039040000000     0.896890000000     0.275960000000     0.070439   
H246     H      0.490280000000     0.613030000000     0.289250000000     0.0506302  
H247     H      0.451060000000     0.647280000000     0.267010000000     0.0493709  
H248     H      0.038670000000     0.615300000000     0.254570000000     0.0472001  
H249     H      0.031690000000     0.647940000000     0.208400000000     0.0698302  
H250     H      0.458180000000     0.589770000000     0.276100000000     0.0472939  
H251     H      0.449130000000     0.624300000000     0.232170000000     0.0491311  
H252     H      0.999410000000     0.624840000000     0.196250000000     0.0665918  
H253     H      0.385000000000     0.786050000000     0.481650000000     0.048542   
H254     H      0.345540000000     0.781630000000     0.522650000000     0.0480374  
H255     H      0.400910000000     0.711800000000     0.952690000000     0.0357242  
H256     H      0.355860000000     0.742330000000     0.946770000000     0.0533057  
H257     H      0.402660000000     0.782760000000     0.519210000000     0.0626869  
H258     H      0.362130000000     0.746370000000     0.536500000000     0.0719509  
H259     H      0.341630000000     0.705820000000     0.959630000000     0.0696193  
H260     H      0.126610000000     0.746070000000     0.544490000000     0.045913   
H261     H      0.095710000000     0.706220000000     0.518270000000     0.0468552  
H262     H      0.127800000000     0.795910000000     0.512910000000     0.0394774  
H263     H      0.094680000000     0.792000000000     0.967800000000     0.071557   
H264     H      0.151300000000     0.714570000000     0.532270000000     0.0422344  
H265     H      0.120570000000     0.707660000000     0.984770000000     0.0505612  
H266     H      0.117830000000     0.761730000000     0.951490000000     0.0696315  
H267     H      0.230510000000     0.883000000000     0.536490000000     0.0491443  
H268     H      0.271270000000     0.844760000000     0.540370000000     0.0511247  
H269     H      0.206650000000     0.879790000000     0.478880000000     0.04952    
H270     H      0.234680000000     0.842190000000     0.947850000000     0.0718278  
H271     H      0.266750000000     0.903010000000     0.540350000000     0.0439736  
H272     H      0.293740000000     0.863700000000     0.011080000000     0.0489751  
H273     H      0.270670000000     0.862560000000     0.953010000000     0.0691144  
H274     H      0.193550000000     0.614420000000     0.508880000000     0.0454897  
H275     H      0.210540000000     0.649500000000     0.967450000000     0.0480622  
H276     H      0.231900000000     0.614180000000     0.554270000000     0.0365838  
H277     H      0.270690000000     0.653300000000     0.546190000000     0.0741679  
H278     H      0.203750000000     0.592690000000     0.974680000000     0.0459745  
H279     H      0.246360000000     0.628520000000     0.963100000000     0.0535138  
H280     H      0.286340000000     0.633960000000     0.013150000000     0.0761154  
H281     H      0.243930000000     0.957040000000     0.871460000000     0.0605405  
H282     H      0.202560000000     0.978250000000     0.904670000000     0.0648947  
H283     H      0.293370000000     0.992770000000     0.870450000000     0.0367767  
H284     H      0.287070000000     0.530100000000     0.910920000000     0.0726107  
H285     H      0.211210000000     0.969800000000     0.848780000000     0.0485378  
H286     H      0.203370000000     0.514330000000     0.883700000000     0.0516905  
H287     H      0.255670000000     0.549000000000     0.891830000000     0.068767   
H288     H      0.238310000000     0.535340000000     0.636120000000     0.0548929  
H289     H      0.197600000000     0.514400000000     0.602270000000     0.0490983  
H290     H      0.287930000000     0.499400000000     0.634060000000     0.0432412  
H291     H      0.279860000000     0.958970000000     0.595900000000     0.0691585  
H292     H      0.206380000000     0.521510000000     0.659180000000     0.0470998  
H293     H      0.197590000000     0.978260000000     0.623280000000     0.0509824  
H294     H      0.247970000000     0.943200000000     0.617100000000     0.0666536  
H295     H      0.043290000000     0.739190000000     0.854870000000     0.0499484  
H296     H      0.024150000000     0.701330000000     0.892600000000     0.0489415  
H297     H      0.508590000000     0.788190000000     0.854970000000     0.0394394  
H298     H      0.469430000000     0.784260000000     0.894930000000     0.071274   
H299     H      0.028670000000     0.705510000000     0.834960000000     0.0470514  
H300     H      0.987170000000     0.699300000000     0.873260000000     0.0499831  
H301     H      0.451990000000     0.751310000000     0.876910000000     0.0686145  
H302     H      0.042500000000     0.751200000000     0.604710000000     0.0455961  
H303     H      0.034710000000     0.712580000000     0.644000000000     0.0490473  
H304     H      0.493100000000     0.789250000000     0.607570000000     0.0408863  
H305     H      0.453350000000     0.769470000000     0.643600000000     0.0694704  
H306     H      0.036600000000     0.715130000000     0.585040000000     0.0440816  
H307     H      0.001630000000     0.697070000000     0.624360000000     0.0497083  
H308     H      0.450840000000     0.733500000000     0.622570000000     0.0732043  
H309     H      0.118770000000     0.492860000000     0.705060000000     0.0503161  
H310     H      0.153740000000     0.953890000000     0.727280000000     0.0522957  
H311     H      0.116580000000     0.541890000000     0.739400000000     0.0463229  
H312     H      0.153990000000     0.537660000000     0.780810000000     0.0715313  
H313     H      0.097060000000     0.959520000000     0.717860000000     0.0527201  
H314     H      0.131570000000     0.952890000000     0.762660000000     0.0543301  
H315     H      0.134340000000     0.005370000000     0.797690000000     0.0702731  
H316     H      0.381460000000     0.995550000000     0.702930000000     0.0490117  
H317     H      0.346560000000     0.535900000000     0.722370000000     0.0523325  
H318     H      0.381710000000     0.948840000000     0.740240000000     0.0426546  
H319     H      0.345240000000     0.956610000000     0.782320000000     0.0750061  
H320     H      0.403520000000     0.529200000000     0.714090000000     0.0484278  
H321     H      0.368580000000     0.539280000000     0.757710000000     0.0531136  
H322     H      0.365890000000     0.489800000000     0.796050000000     0.0751175  
H323     H      0.458300000000     0.856650000000     0.747840000000     0.0592812  
H324     H      0.464760000000     0.899500000000     0.710970000000     0.0512778  
H325     H      0.032260000000     0.837630000000     0.777920000000     0.0401407  
H326     H      0.002060000000     0.882190000000     0.786900000000     0.063185   
H327     H      0.463350000000     0.842100000000     0.709170000000     0.0517133  
H328     H      0.500290000000     0.883800000000     0.696780000000     0.0649594  
H329     H      0.039040000000     0.896890000000     0.775960000000     0.0704612  
H330     H      0.490280000000     0.613030000000     0.789250000000     0.0506625  
H331     H      0.451060000000     0.647280000000     0.767010000000     0.0493735  
H332     H      0.038670000000     0.615300000000     0.754570000000     0.0472046  
H333     H      0.031690000000     0.647940000000     0.708400000000     0.0698531  
H334     H      0.458180000000     0.589770000000     0.776100000000     0.0473186  
H335     H      0.449130000000     0.624300000000     0.732170000000     0.0491332  
H336     H      0.999410000000     0.624840000000     0.696250000000     0.0666258  
H337     H      0.885000000000     0.286050000000     0.981650000000     0.0502364  
H338     H      0.845540000000     0.281630000000     0.022650000000     0.0477456  
H339     H      0.900910000000     0.211800000000     0.452690000000     0.0357923  
H340     H      0.855850000000     0.242330000000     0.446770000000     0.0533244  
H341     H      0.902660000000     0.282760000000     0.019210000000     0.0629541  
H342     H      0.862130000000     0.246370000000     0.036500000000     0.0718547  
H343     H      0.841630000000     0.205820000000     0.459630000000     0.0695489  
H344     H      0.626610000000     0.246070000000     0.044480000000     0.0456033  
H345     H      0.595710000000     0.206220000000     0.018270000000     0.0471797  
H346     H      0.627800000000     0.295900000000     0.012910000000     0.0377286  
H347     H      0.594680000000     0.292000000000     0.467800000000     0.0712307  
H348     H      0.651300000000     0.214570000000     0.032270000000     0.0419448  
H349     H      0.620570000000     0.207660000000     0.484770000000     0.0488645  
H350     H      0.617830000000     0.261730000000     0.451490000000     0.0694317  
H351     H      0.730510000000     0.383000000000     0.036490000000     0.0489712  
H352     H      0.771270000000     0.344760000000     0.040370000000     0.0511878  
H353     H      0.706650000000     0.379790000000     0.978880000000     0.0498936  
H354     H      0.734680000000     0.342190000000     0.447850000000     0.071893   
H355     H      0.766750000000     0.403010000000     0.040350000000     0.0439413  
H356     H      0.793730000000     0.363700000000     0.511080000000     0.0494973  
H357     H      0.770670000000     0.362560000000     0.453010000000     0.0690444  
H358     H      0.693550000000     0.114420000000     0.008880000000     0.044162   
H359     H      0.710540000000     0.149500000000     0.467450000000     0.0478772  
H360     H      0.731910000000     0.114180000000     0.054270000000     0.0367689  
H361     H      0.770690000000     0.153300000000     0.046190000000     0.0742398  
H362     H      0.703750000000     0.092690000000     0.474680000000     0.0466497  
H363     H      0.746360000000     0.128520000000     0.463100000000     0.0533468  
H364     H      0.786330000000     0.133960000000     0.513150000000     0.0766302  
H365     H      0.743930000000     0.457040000000     0.371460000000     0.0615396  
H366     H      0.702560000000     0.478250000000     0.404670000000     0.0633437  
H367     H      0.793370000000     0.492770000000     0.370450000000     0.0426201  
H368     H      0.787070000000     0.030100000000     0.410910000000     0.073736   
H369     H      0.711210000000     0.469800000000     0.348780000000     0.0499263  
H370     H      0.703370000000     0.014330000000     0.383700000000     0.0579061  
H371     H      0.755670000000     0.049010000000     0.391830000000     0.0693766  
H372     H      0.738310000000     0.035340000000     0.136120000000     0.0538133  
H373     H      0.697600000000     0.014400000000     0.102270000000     0.0562138  
H374     H      0.787930000000     0.999400000000     0.134060000000     0.0415921  
H375     H      0.779860000000     0.458970000000     0.095900000000     0.0691365  
H376     H      0.706380000000     0.021510000000     0.159180000000     0.0462189  
H377     H      0.697590000000     0.478260000000     0.123280000000     0.0489915  
H378     H      0.747970000000     0.443200000000     0.117100000000     0.0664028  
H379     H      0.543290000000     0.239190000000     0.354870000000     0.0497873  
H380     H      0.524150000000     0.201330000000     0.392600000000     0.0492177  
H381     H      0.008590000000     0.288190000000     0.354980000000     0.0402848  
H382     H      0.969430000000     0.284260000000     0.394930000000     0.0711866  
H383     H      0.528670000000     0.205510000000     0.334960000000     0.046822   
H384     H      0.487170000000     0.199300000000     0.373260000000     0.050896   
H385     H      0.951990000000     0.251320000000     0.376910000000     0.0685639  
H386     H      0.542500000000     0.251200000000     0.104710000000     0.0454566  
H387     H      0.534710000000     0.212570000000     0.144000000000     0.0490739  
H388     H      0.993100000000     0.289250000000     0.107570000000     0.040712   
H389     H      0.953350000000     0.269470000000     0.143600000000     0.0694685  
H390     H      0.536600000000     0.215130000000     0.085040000000     0.043961   
H391     H      0.501620000000     0.197070000000     0.124360000000     0.049573   
H392     H      0.950840000000     0.233500000000     0.122570000000     0.0731744  
H393     H      0.618770000000     0.992860000000     0.205060000000     0.0496411  
H394     H      0.653740000000     0.453890000000     0.227280000000     0.0525957  
H395     H      0.616580000000     0.041890000000     0.239400000000     0.0476583  
H396     H      0.653990000000     0.037660000000     0.280810000000     0.0712819  
H397     H      0.597060000000     0.459520000000     0.217860000000     0.051871   
H398     H      0.631570000000     0.452890000000     0.262660000000     0.0552959  
H399     H      0.634340000000     0.505370000000     0.297690000000     0.0691796  
H400     H      0.881460000000     0.495550000000     0.202930000000     0.0547187  
H401     H      0.846560000000     0.035900000000     0.222370000000     0.0533796  
H402     H      0.881710000000     0.448840000000     0.240240000000     0.0427971  
H403     H      0.845240000000     0.456620000000     0.282330000000     0.0750565  
H404     H      0.903520000000     0.029200000000     0.214090000000     0.0477214  
H405     H      0.868580000000     0.039280000000     0.257710000000     0.0540965  
H406     H      0.865890000000     0.989790000000     0.296050000000     0.0737653  
H407     H      0.958310000000     0.356650000000     0.247840000000     0.0591966  
H408     H      0.964760000000     0.399500000000     0.210970000000     0.0515152  
H409     H      0.532260000000     0.337630000000     0.277920000000     0.0401053  
H410     H      0.502060000000     0.382190000000     0.286900000000     0.063047   
H411     H      0.963350000000     0.342110000000     0.209170000000     0.0516217  
H412     H      0.000290000000     0.383800000000     0.196790000000     0.0659039  
H413     H      0.539040000000     0.396890000000     0.275960000000     0.0706796  
H414     H      0.990280000000     0.113030000000     0.289250000000     0.0507707  
H415     H      0.951070000000     0.147280000000     0.267010000000     0.0495225  
H416     H      0.538670000000     0.115300000000     0.254570000000     0.0471563  
H417     H      0.531690000000     0.147940000000     0.208400000000     0.0701145  
H418     H      0.958180000000     0.089770000000     0.276100000000     0.0479458  
H419     H      0.949130000000     0.124300000000     0.232170000000     0.0494231  
H420     H      0.499410000000     0.124840000000     0.196250000000     0.067669   
H421     H      0.885000000000     0.286050000000     0.481650000000     0.0486054  
H422     H      0.845540000000     0.281630000000     0.522650000000     0.0480626  
H423     H      0.900910000000     0.211800000000     0.952690000000     0.0357668  
H424     H      0.855850000000     0.242330000000     0.946770000000     0.0533281  
H425     H      0.902660000000     0.282760000000     0.519210000000     0.0627414  
H426     H      0.862130000000     0.246370000000     0.536500000000     0.0719647  
H427     H      0.841630000000     0.205820000000     0.959630000000     0.0696635  
H428     H      0.626610000000     0.246070000000     0.544490000000     0.0459148  
H429     H      0.595710000000     0.206220000000     0.518270000000     0.0469615  
H430     H      0.627800000000     0.295900000000     0.512910000000     0.0394859  
H431     H      0.594680000000     0.292000000000     0.967800000000     0.0715627  
H432     H      0.651300000000     0.214570000000     0.532270000000     0.0423051  
H433     H      0.620570000000     0.207660000000     0.984770000000     0.0506482  
H434     H      0.617830000000     0.261730000000     0.951490000000     0.069635   
H435     H      0.730510000000     0.383000000000     0.536490000000     0.0491642  
H436     H      0.771270000000     0.344760000000     0.540370000000     0.0511614  
H437     H      0.706650000000     0.379790000000     0.478880000000     0.049579   
H438     H      0.734680000000     0.342190000000     0.947850000000     0.0718632  
H439     H      0.766750000000     0.403010000000     0.540350000000     0.0440135  
H440     H      0.793730000000     0.363700000000     0.011080000000     0.0491215  
H441     H      0.770670000000     0.362560000000     0.953010000000     0.0692153  
H442     H      0.693550000000     0.114420000000     0.508880000000     0.0458402  
H443     H      0.710540000000     0.149500000000     0.967450000000     0.048152   
H444     H      0.731910000000     0.114180000000     0.554270000000     0.0368333  
H445     H      0.770690000000     0.153300000000     0.546190000000     0.0742457  
H446     H      0.703750000000     0.092690000000     0.974680000000     0.0464583  
H447     H      0.746360000000     0.128520000000     0.963100000000     0.0536255  
H448     H      0.786330000000     0.133960000000     0.013150000000     0.076267   
H449     H      0.743930000000     0.457040000000     0.871460000000     0.0615588  
H450     H      0.702560000000     0.478250000000     0.904670000000     0.0634345  
H451     H      0.793370000000     0.492770000000     0.870450000000     0.0426777  
H452     H      0.787070000000     0.030100000000     0.910920000000     0.0738976  
H453     H      0.711210000000     0.469800000000     0.848780000000     0.0499469  
H454     H      0.703370000000     0.014330000000     0.883700000000     0.0579753  
H455     H      0.755670000000     0.049010000000     0.891830000000     0.0694711  
H456     H      0.738310000000     0.035340000000     0.636120000000     0.0538193  
H457     H      0.697600000000     0.014400000000     0.602270000000     0.0562672  
H458     H      0.787930000000     0.999400000000     0.634060000000     0.0416171  
H459     H      0.779860000000     0.458970000000     0.595900000000     0.069235   
H460     H      0.706380000000     0.021510000000     0.659180000000     0.0462275  
H461     H      0.697590000000     0.478260000000     0.623280000000     0.0490577  
H462     H      0.747970000000     0.443200000000     0.617100000000     0.0664598  
H463     H      0.543290000000     0.239190000000     0.854870000000     0.0497966  
H464     H      0.524150000000     0.201330000000     0.892600000000     0.0492766  
H465     H      0.008590000000     0.288190000000     0.854970000000     0.0403102  
H466     H      0.969430000000     0.284260000000     0.894930000000     0.071234   
H467     H      0.528670000000     0.205510000000     0.834960000000     0.0468368  
H468     H      0.487170000000     0.199300000000     0.873260000000     0.0509341  
H469     H      0.951990000000     0.251320000000     0.876910000000     0.0685737  
H470     H      0.542500000000     0.251200000000     0.604710000000     0.0455498  
H471     H      0.534710000000     0.212570000000     0.644000000000     0.0491035  
H472     H      0.993100000000     0.289250000000     0.607570000000     0.040788   
H473     H      0.953350000000     0.269470000000     0.643600000000     0.0694822  
H474     H      0.536600000000     0.215130000000     0.585040000000     0.0441268  
H475     H      0.501620000000     0.197070000000     0.624360000000     0.0496482  
H476     H      0.950840000000     0.233500000000     0.622570000000     0.073218   
H477     H      0.618770000000     0.992860000000     0.705060000000     0.049673   
H478     H      0.653740000000     0.453890000000     0.727280000000     0.0526001  
H479     H      0.616580000000     0.041890000000     0.739400000000     0.0476484  
H480     H      0.653990000000     0.037660000000     0.780810000000     0.0713019  
H481     H      0.597060000000     0.459520000000     0.717860000000     0.051907   
H482     H      0.631570000000     0.452890000000     0.762660000000     0.0553097  
H483     H      0.634340000000     0.505370000000     0.797690000000     0.0692167  
H484     H      0.881460000000     0.495550000000     0.702930000000     0.0547525  
H485     H      0.846560000000     0.035900000000     0.722370000000     0.053388   
H486     H      0.881710000000     0.448840000000     0.740240000000     0.0428136  
H487     H      0.845240000000     0.456620000000     0.782320000000     0.0750388  
H488     H      0.903520000000     0.029200000000     0.714090000000     0.0477534  
H489     H      0.868580000000     0.039280000000     0.757710000000     0.0541015  
H490     H      0.865890000000     0.989790000000     0.796050000000     0.0737611  
H491     H      0.958310000000     0.356650000000     0.747840000000     0.0591975  
H492     H      0.964760000000     0.399500000000     0.710970000000     0.051529   
H493     H      0.532260000000     0.337630000000     0.777920000000     0.0401049  
H494     H      0.502060000000     0.382190000000     0.786900000000     0.0630684  
H495     H      0.963350000000     0.342110000000     0.709170000000     0.0516458  
H496     H      0.000290000000     0.383800000000     0.696780000000     0.0659306  
H497     H      0.539040000000     0.396890000000     0.775960000000     0.0707009  
H498     H      0.990280000000     0.113030000000     0.789250000000     0.0508007  
H499     H      0.951070000000     0.147280000000     0.767010000000     0.0495246  
H500     H      0.538670000000     0.115300000000     0.754570000000     0.0471597  
H501     H      0.531690000000     0.147940000000     0.708400000000     0.0701384  
H502     H      0.958180000000     0.089770000000     0.776100000000     0.0479687  
H503     H      0.949130000000     0.124300000000     0.732170000000     0.0494244  
H504     H      0.499410000000     0.124840000000     0.696250000000     0.0677084  
H505     H      0.885000000000     0.786050000000     0.981650000000     0.050176   
H506     H      0.845540000000     0.781630000000     0.022650000000     0.0477148  
H507     H      0.900910000000     0.711800000000     0.452690000000     0.0357176  
H508     H      0.855850000000     0.742330000000     0.446770000000     0.0533018  
H509     H      0.902660000000     0.782760000000     0.019210000000     0.0628935  
H510     H      0.862130000000     0.746370000000     0.036500000000     0.0718327  
H511     H      0.841630000000     0.705820000000     0.459630000000     0.0694992  
H512     H      0.626610000000     0.746070000000     0.044480000000     0.0455694  
H513     H      0.595710000000     0.706220000000     0.018270000000     0.0470262  
H514     H      0.627800000000     0.795910000000     0.012910000000     0.0376719  
H515     H      0.594680000000     0.792000000000     0.467800000000     0.0711461  
H516     H      0.651300000000     0.714570000000     0.032270000000     0.0418666  
H517     H      0.620570000000     0.707660000000     0.484770000000     0.0487416  
H518     H      0.617830000000     0.761730000000     0.451490000000     0.0693997  
H519     H      0.730510000000     0.883000000000     0.036490000000     0.0489344  
H520     H      0.771270000000     0.844760000000     0.040370000000     0.051161   
H521     H      0.706650000000     0.879790000000     0.978880000000     0.0498292  
H522     H      0.734680000000     0.842190000000     0.447850000000     0.0718653  
H523     H      0.766750000000     0.903010000000     0.040350000000     0.0438946  
H524     H      0.793730000000     0.863700000000     0.511080000000     0.0493679  
H525     H      0.770670000000     0.862560000000     0.453010000000     0.0689464  
H526     H      0.693550000000     0.614420000000     0.008880000000     0.0437799  
H527     H      0.710540000000     0.649500000000     0.467450000000     0.0477767  
H528     H      0.731910000000     0.614180000000     0.054270000000     0.0365077  
H529     H      0.770690000000     0.653300000000     0.046190000000     0.074175   
H530     H      0.703750000000     0.592690000000     0.474680000000     0.0461496  
H531     H      0.746360000000     0.628520000000     0.463100000000     0.053229   
H532     H      0.786330000000     0.633960000000     0.513150000000     0.0765012  
H533     H      0.743930000000     0.957040000000     0.371460000000     0.0605295  
H534     H      0.702560000000     0.978250000000     0.404670000000     0.0647871  
H535     H      0.793370000000     0.992770000000     0.370450000000     0.0366955  
H536     H      0.787070000000     0.530100000000     0.410910000000     0.0724415  
H537     H      0.711210000000     0.969800000000     0.348780000000     0.048512   
H538     H      0.703370000000     0.514330000000     0.383700000000     0.0515758  
H539     H      0.755670000000     0.549000000000     0.391830000000     0.0686693  
H540     H      0.738310000000     0.535340000000     0.136120000000     0.0548854  
H541     H      0.697600000000     0.514400000000     0.102270000000     0.0490198  
H542     H      0.787930000000     0.499400000000     0.134060000000     0.0432086  
H543     H      0.779860000000     0.958970000000     0.095900000000     0.0690495  
H544     H      0.706380000000     0.521510000000     0.159180000000     0.0470878  
H545     H      0.697590000000     0.978260000000     0.123280000000     0.050896   
H546     H      0.747970000000     0.943200000000     0.117100000000     0.0665887  
H547     H      0.543290000000     0.739190000000     0.354870000000     0.0497632  
H548     H      0.524150000000     0.701330000000     0.392600000000     0.0490572  
H549     H      0.008590000000     0.788190000000     0.354980000000     0.0402285  
H550     H      0.969430000000     0.784260000000     0.394930000000     0.0711129  
H551     H      0.528670000000     0.705510000000     0.334960000000     0.0467543  
H552     H      0.487170000000     0.699300000000     0.373260000000     0.0507399  
H553     H      0.951990000000     0.751310000000     0.376910000000     0.0685164  
H554     H      0.542500000000     0.751200000000     0.104710000000     0.0454243  
H555     H      0.534710000000     0.712580000000     0.144000000000     0.0490102  
H556     H      0.993100000000     0.789250000000     0.107570000000     0.0406569  
H557     H      0.953350000000     0.769470000000     0.143600000000     0.0694524  
H558     H      0.536600000000     0.715130000000     0.085040000000     0.0438408  
H559     H      0.501620000000     0.697070000000     0.124360000000     0.0494005  
H560     H      0.950840000000     0.733500000000     0.122570000000     0.0731034  
H561     H      0.618770000000     0.492860000000     0.205060000000     0.0502633  
H562     H      0.653740000000     0.953890000000     0.227280000000     0.0522831  
H563     H      0.616580000000     0.541890000000     0.239400000000     0.0463243  
H564     H      0.653990000000     0.537660000000     0.280810000000     0.0715049  
H565     H      0.597060000000     0.959520000000     0.217860000000     0.0526515  
H566     H      0.631570000000     0.952890000000     0.262660000000     0.054295   
H567     H      0.634340000000     0.005370000000     0.297690000000     0.0702175  
H568     H      0.881460000000     0.995550000000     0.202930000000     0.0489525  
H569     H      0.846560000000     0.535900000000     0.222370000000     0.0523156  
H570     H      0.881710000000     0.948840000000     0.240240000000     0.0426214  
H571     H      0.845240000000     0.956610000000     0.282330000000     0.0750139  
H572     H      0.903520000000     0.529200000000     0.214090000000     0.0483476  
H573     H      0.868580000000     0.539280000000     0.257710000000     0.0530968  
H574     H      0.865890000000     0.489800000000     0.296050000000     0.075111   
H575     H      0.958310000000     0.856650000000     0.247840000000     0.0591911  
H576     H      0.964760000000     0.899500000000     0.210970000000     0.0514209  
H577     H      0.532260000000     0.837630000000     0.277920000000     0.0400751  
H578     H      0.502060000000     0.882190000000     0.286900000000     0.0628943  
H579     H      0.963350000000     0.842100000000     0.209170000000     0.0515974  
H580     H      0.000290000000     0.883800000000     0.196790000000     0.0657506  
H581     H      0.539040000000     0.896890000000     0.275960000000     0.070397   
H582     H      0.990280000000     0.613030000000     0.289250000000     0.0504874  
H583     H      0.951070000000     0.647280000000     0.267010000000     0.0493968  
H584     H      0.538670000000     0.615300000000     0.254570000000     0.0470673  
H585     H      0.531690000000     0.647940000000     0.208400000000     0.0700342  
H586     H      0.958180000000     0.589770000000     0.276100000000     0.0472988  
H587     H      0.949130000000     0.624300000000     0.232170000000     0.0491246  
H588     H      0.499410000000     0.624840000000     0.196250000000     0.0673891  
H589     H      0.885000000000     0.786050000000     0.481650000000     0.0485357  
H590     H      0.845540000000     0.781630000000     0.522650000000     0.0480329  
H591     H      0.900910000000     0.711800000000     0.952690000000     0.0356921  
H592     H      0.855850000000     0.742330000000     0.946770000000     0.0533056  
H593     H      0.902660000000     0.782760000000     0.519210000000     0.0626793  
H594     H      0.862130000000     0.746370000000     0.536500000000     0.0719433  
H595     H      0.841630000000     0.705820000000     0.959630000000     0.0696151  
H596     H      0.626610000000     0.746070000000     0.544490000000     0.0458828  
H597     H      0.595710000000     0.706220000000     0.518270000000     0.0468064  
H598     H      0.627800000000     0.795910000000     0.512910000000     0.0394376  
H599     H      0.594680000000     0.792000000000     0.967800000000     0.0714802  
H600     H      0.651300000000     0.714570000000     0.532270000000     0.0422291  
H601     H      0.620570000000     0.707660000000     0.984770000000     0.0505376  
H602     H      0.617830000000     0.761730000000     0.951490000000     0.0696043  
H603     H      0.730510000000     0.883000000000     0.536490000000     0.0491282  
H604     H      0.771270000000     0.844760000000     0.540370000000     0.0511343  
H605     H      0.706650000000     0.879790000000     0.478880000000     0.0495126  
H606     H      0.734680000000     0.842190000000     0.947850000000     0.0718354  
H607     H      0.766750000000     0.903010000000     0.540350000000     0.0439672  
H608     H      0.793730000000     0.863700000000     0.011080000000     0.0489916  
H609     H      0.770670000000     0.862560000000     0.953010000000     0.0691185  
H610     H      0.693550000000     0.614420000000     0.508880000000     0.0454722  
H611     H      0.710540000000     0.649500000000     0.967450000000     0.0480544  
H612     H      0.731910000000     0.614180000000     0.554270000000     0.0365727  
H613     H      0.770690000000     0.653300000000     0.546190000000     0.0741809  
H614     H      0.703750000000     0.592690000000     0.974680000000     0.0459582  
H615     H      0.746360000000     0.628520000000     0.963100000000     0.0535109  
H616     H      0.786330000000     0.633960000000     0.013150000000     0.0761359  
H617     H      0.743930000000     0.957040000000     0.871460000000     0.0605528  
H618     H      0.702560000000     0.978250000000     0.904670000000     0.0648725  
H619     H      0.793370000000     0.992770000000     0.870450000000     0.0367713  
H620     H      0.787070000000     0.530100000000     0.910920000000     0.0726088  
H621     H      0.711210000000     0.969800000000     0.848780000000     0.0485371  
H622     H      0.703370000000     0.514330000000     0.883700000000     0.0516679  
H623     H      0.755670000000     0.549000000000     0.891830000000     0.0687665  
H624     H      0.738310000000     0.535340000000     0.636120000000     0.0548907  
H625     H      0.697600000000     0.514400000000     0.602270000000     0.0490759  
H626     H      0.787930000000     0.499400000000     0.634060000000     0.0432332  
H627     H      0.779860000000     0.958970000000     0.595900000000     0.0691481  
H628     H      0.706380000000     0.521510000000     0.659180000000     0.0470967  
H629     H      0.697590000000     0.978260000000     0.623280000000     0.0509615  
H630     H      0.747970000000     0.943200000000     0.617100000000     0.0666458  
H631     H      0.543290000000     0.739190000000     0.854870000000     0.0497727  
H632     H      0.524150000000     0.701330000000     0.892600000000     0.0491171  
H633     H      0.008590000000     0.788190000000     0.854970000000     0.0402542  
H634     H      0.969430000000     0.784260000000     0.894930000000     0.0711608  
H635     H      0.528670000000     0.705510000000     0.834960000000     0.0467694  
H636     H      0.487170000000     0.699300000000     0.873260000000     0.0507789  
H637     H      0.951990000000     0.751310000000     0.876910000000     0.0685264  
H638     H      0.542500000000     0.751200000000     0.604710000000     0.0455179  
H639     H      0.534710000000     0.712580000000     0.644000000000     0.04904    
H640     H      0.993100000000     0.789250000000     0.607570000000     0.040733   
H641     H      0.953350000000     0.769470000000     0.643600000000     0.0694661  
H642     H      0.536600000000     0.715130000000     0.585040000000     0.0440075  
H643     H      0.501620000000     0.697070000000     0.624360000000     0.0494762  
H644     H      0.950840000000     0.733500000000     0.622570000000     0.0731473  
H645     H      0.618770000000     0.492860000000     0.705060000000     0.0502958  
H646     H      0.653740000000     0.953890000000     0.727280000000     0.052288   
H647     H      0.616580000000     0.541890000000     0.739400000000     0.0463158  
H648     H      0.653990000000     0.537660000000     0.780810000000     0.071525   
H649     H      0.597060000000     0.959520000000     0.717860000000     0.0526853  
H650     H      0.631570000000     0.952890000000     0.762660000000     0.054311   
H651     H      0.634340000000     0.005370000000     0.797690000000     0.0702509  
H652     H      0.881460000000     0.995550000000     0.702930000000     0.0489935  
H653     H      0.846560000000     0.535900000000     0.722370000000     0.0523249  
H654     H      0.881710000000     0.948840000000     0.740240000000     0.0426379  
H655     H      0.845240000000     0.956610000000     0.782320000000     0.0749969  
H656     H      0.903520000000     0.529200000000     0.714090000000     0.0483787  
H657     H      0.868580000000     0.539280000000     0.757710000000     0.0531037  
H658     H      0.865890000000     0.489800000000     0.796050000000     0.0751037  
H659     H      0.958310000000     0.856650000000     0.747840000000     0.059192   
H660     H      0.964760000000     0.899500000000     0.710970000000     0.0514346  
H661     H      0.532260000000     0.837630000000     0.777920000000     0.0400748  
H662     H      0.502060000000     0.882190000000     0.786900000000     0.0629162  
H663     H      0.963350000000     0.842100000000     0.709170000000     0.0516214  
H664     H      0.000290000000     0.883800000000     0.696780000000     0.0657773  
H665     H      0.539040000000     0.896890000000     0.775960000000     0.0704191  
H666     H      0.990280000000     0.613030000000     0.789250000000     0.0505184  
H667     H      0.951070000000     0.647280000000     0.767010000000     0.0493992  
H668     H      0.538670000000     0.615300000000     0.754570000000     0.047071   
H669     H      0.531690000000     0.647940000000     0.708400000000     0.0700583  
H670     H      0.958180000000     0.589770000000     0.776100000000     0.0473233  
H671     H      0.949130000000     0.624300000000     0.732170000000     0.0491263  
H672     H      0.499410000000     0.624840000000     0.696250000000     0.0674288  
N1       N      0.406150000000     0.242650000000     0.490080000000    -0.168302   
N2       N      0.339800000000     0.242530000000     0.492840000000    -0.155112   
N3       N      0.391170000000     0.188740000000     0.494240000000    -0.0197781  
N4       N      0.154830000000     0.256480000000     0.005820000000    -0.173505   
N5       N      0.092550000000     0.247520000000     0.990360000000    -0.159986   
N6       N      0.158150000000     0.304810000000     0.475700000000    -0.0284063  
N7       N      0.245550000000     0.404770000000     0.495400000000    -0.166837   
N8       N      0.254710000000     0.340290000000     0.493400000000    -0.15895    
N9       N      0.226780000000     0.403860000000     0.441050000000    -0.0308594  
N10      N      0.235900000000     0.089930000000     0.012630000000    -0.171145   
N11      N      0.243250000000     0.154410000000     0.004580000000    -0.160172   
N12      N      0.273530000000     0.088890000000     0.055650000000    -0.0256857  
N13      N      0.251710000000     0.498550000000     0.346540000000    -0.169013   
N14      N      0.243350000000     0.506290000000     0.410920000000    -0.158075   
N15      N      0.295830000000     0.034680000000     0.345840000000    -0.0257436  
N16      N      0.247590000000     0.993650000000     0.160240000000    -0.171611   
N17      N      0.237760000000     0.985700000000     0.096270000000    -0.159307   
N18      N      0.292370000000     0.458180000000     0.159650000000    -0.0247368  
N19      N      0.500390000000     0.246300000000     0.332170000000    -0.171118   
N20      N      0.495080000000     0.241490000000     0.396810000000    -0.161323   
N21      N      0.466480000000     0.292260000000     0.330700000000    -0.0259889  
N22      N      0.999170000000     0.247890000000     0.082530000000    -0.171636   
N23      N      0.992850000000     0.239640000000     0.146440000000    -0.161461   
N24      N      0.453290000000     0.281110000000     0.080240000000    -0.0253253  
N25      N      0.092810000000     0.500280000000     0.245990000000    -0.169387   
N26      N      0.156820000000     0.494370000000     0.256190000000    -0.160548   
N27      N      0.089420000000     0.046260000000     0.279660000000    -0.0228695  
N28      N      0.406980000000     0.989880000000     0.244450000000    -0.173292   
N29      N      0.342980000000     0.997700000000     0.254060000000    -0.159564   
N30      N      0.408950000000     0.445540000000     0.280560000000    -0.0255091  
N31      N      0.001920000000     0.335810000000     0.239720000000    -0.168474   
N32      N      0.002960000000     0.402070000000     0.242360000000    -0.153237   
N33      N      0.056140000000     0.350260000000     0.237620000000    -0.0206636  
N34      N      0.499520000000     0.087470000000     0.248450000000    -0.170413   
N35      N      0.490380000000     0.150320000000     0.236580000000    -0.161854   
N36      N      0.046850000000     0.086190000000     0.216190000000    -0.02313    
N37      N      0.406150000000     0.242650000000     0.990080000000    -0.167272   
N38      N      0.339800000000     0.242530000000     0.992840000000    -0.154659   
N39      N      0.391170000000     0.188740000000     0.994240000000    -0.0189499  
N40      N      0.154830000000     0.256480000000     0.505820000000    -0.172656   
N41      N      0.092550000000     0.247520000000     0.490360000000    -0.161171   
N42      N      0.158150000000     0.304810000000     0.975700000000    -0.0285118  
N43      N      0.245550000000     0.404770000000     0.995400000000    -0.165966   
N44      N      0.254710000000     0.340290000000     0.993400000000    -0.158439   
N45      N      0.226780000000     0.403860000000     0.941050000000    -0.0308846  
N46      N      0.235900000000     0.089930000000     0.512630000000    -0.170189   
N47      N      0.243250000000     0.154410000000     0.504580000000    -0.159815   
N48      N      0.273530000000     0.088890000000     0.555650000000    -0.0257238  
N49      N      0.251710000000     0.498550000000     0.846540000000    -0.169002   
N50      N      0.243350000000     0.506290000000     0.910930000000    -0.158038   
N51      N      0.295830000000     0.034680000000     0.845840000000    -0.0257362  
N52      N      0.247590000000     0.993650000000     0.660240000000    -0.171607   
N53      N      0.237760000000     0.985700000000     0.596270000000    -0.159311   
N54      N      0.292370000000     0.458180000000     0.659650000000    -0.0247419  
N55      N      0.500390000000     0.246300000000     0.832170000000    -0.171119   
N56      N      0.495080000000     0.241490000000     0.896810000000    -0.16133    
N57      N      0.466480000000     0.292260000000     0.830690000000    -0.0259936  
N58      N      0.999170000000     0.247890000000     0.582530000000    -0.171532   
N59      N      0.992850000000     0.239640000000     0.646440000000    -0.161455   
N60      N      0.453290000000     0.281110000000     0.580240000000    -0.0252488  
N61      N      0.092810000000     0.500280000000     0.746000000000    -0.169376   
N62      N      0.156820000000     0.494370000000     0.756190000000    -0.160538   
N63      N      0.089420000000     0.046260000000     0.779660000000    -0.022878   
N64      N      0.406980000000     0.989880000000     0.744450000000    -0.173231   
N65      N      0.342980000000     0.997700000000     0.754060000000    -0.159582   
N66      N      0.408950000000     0.445540000000     0.780570000000    -0.0254727  
N67      N      0.001920000000     0.335810000000     0.739720000000    -0.168472   
N68      N      0.002960000000     0.402070000000     0.742360000000    -0.153234   
N69      N      0.056140000000     0.350260000000     0.737620000000    -0.0206727  
N70      N      0.499520000000     0.087470000000     0.748450000000    -0.170407   
N71      N      0.490380000000     0.150320000000     0.736590000000    -0.161856   
N72      N      0.046850000000     0.086190000000     0.716190000000    -0.0231389  
N73      N      0.406150000000     0.742650000000     0.490080000000    -0.16832    
N74      N      0.339800000000     0.742530000000     0.492840000000    -0.155113   
N75      N      0.391170000000     0.688740000000     0.494240000000    -0.0198162  
N76      N      0.154830000000     0.756480000000     0.005820000000    -0.173508   
N77      N      0.092550000000     0.747520000000     0.990360000000    -0.160007   
N78      N      0.158150000000     0.804810000000     0.475700000000    -0.0283897  
N79      N      0.245550000000     0.904770000000     0.495400000000    -0.166796   
N80      N      0.254710000000     0.840290000000     0.493400000000    -0.158964   
N81      N      0.226780000000     0.903860000000     0.441050000000    -0.0307939  
N82      N      0.235900000000     0.589930000000     0.012630000000    -0.171528   
N83      N      0.243250000000     0.654410000000     0.004580000000    -0.160193   
N84      N      0.273530000000     0.588890000000     0.055650000000    -0.0259847  
N85      N      0.251710000000     0.998550000000     0.346540000000    -0.17219    
N86      N      0.243350000000     0.006290000000     0.410920000000    -0.15459    
N87      N      0.295830000000     0.534680000000     0.345840000000    -0.0253953  
N88      N      0.247590000000     0.493650000000     0.160240000000    -0.169089   
N89      N      0.237760000000     0.485700000000     0.096270000000    -0.160573   
N90      N      0.292370000000     0.958180000000     0.159650000000    -0.0248614  
N91      N      0.500390000000     0.746300000000     0.332170000000    -0.171117   
N92      N      0.495080000000     0.741490000000     0.396810000000    -0.161406   
N93      N      0.466480000000     0.792250000000     0.330700000000    -0.0259912  
N94      N      0.999170000000     0.747890000000     0.082530000000    -0.171662   
N95      N      0.992850000000     0.739640000000     0.146440000000    -0.161474   
N96      N      0.453290000000     0.781110000000     0.080240000000    -0.0253382  
N97      N      0.092810000000     0.000280000000     0.245990000000    -0.162111   
N98      N      0.156820000000     0.994370000000     0.256190000000    -0.162733   
N99      N      0.089420000000     0.546260000000     0.279660000000    -0.0231766  
N100     N      0.406980000000     0.489880000000     0.244450000000    -0.169945   
N101     N      0.342980000000     0.497700000000     0.254060000000    -0.15817    
N102     N      0.408950000000     0.945540000000     0.280560000000    -0.0253818  
N103     N      0.001920000000     0.835810000000     0.239720000000    -0.168472   
N104     N      0.002960000000     0.902070000000     0.242360000000    -0.153213   
N105     N      0.056140000000     0.850260000000     0.237620000000    -0.0206328  
N106     N      0.499520000000     0.587470000000     0.248450000000    -0.170803   
N107     N      0.490380000000     0.650320000000     0.236580000000    -0.161883   
N108     N      0.046850000000     0.586190000000     0.216190000000    -0.0233246  
N109     N      0.406150000000     0.742650000000     0.990080000000    -0.167285   
N110     N      0.339800000000     0.742530000000     0.992840000000    -0.154657   
N111     N      0.391170000000     0.688740000000     0.994240000000    -0.0189815  
N112     N      0.154830000000     0.756480000000     0.505820000000    -0.172654   
N113     N      0.092550000000     0.747520000000     0.490360000000    -0.1612     
N114     N      0.158150000000     0.804810000000     0.975700000000    -0.0284956  
N115     N      0.245550000000     0.904770000000     0.995400000000    -0.16592    
N116     N      0.254710000000     0.840290000000     0.993400000000    -0.15845    
N117     N      0.226780000000     0.903860000000     0.941050000000    -0.0308195  
N118     N      0.235900000000     0.589930000000     0.512630000000    -0.170564   
N119     N      0.243250000000     0.654410000000     0.504580000000    -0.159832   
N120     N      0.273530000000     0.588890000000     0.555650000000    -0.0260229  
N121     N      0.251710000000     0.998550000000     0.846540000000    -0.172167   
N122     N      0.243350000000     0.006290000000     0.910930000000    -0.154567   
N123     N      0.295830000000     0.534680000000     0.845840000000    -0.0253905  
N124     N      0.247590000000     0.493650000000     0.660240000000    -0.169086   
N125     N      0.237760000000     0.485700000000     0.596270000000    -0.160576   
N126     N      0.292370000000     0.958180000000     0.659650000000    -0.0248664  
N127     N      0.500390000000     0.746300000000     0.832170000000    -0.171118   
N128     N      0.495080000000     0.741490000000     0.896810000000    -0.161412   
N129     N      0.466480000000     0.792250000000     0.830690000000    -0.0259959  
N130     N      0.999170000000     0.747890000000     0.582530000000    -0.171557   
N131     N      0.992850000000     0.739640000000     0.646440000000    -0.161468   
N132     N      0.453290000000     0.781110000000     0.580240000000    -0.0252615  
N133     N      0.092810000000     0.000280000000     0.746000000000    -0.162114   
N134     N      0.156820000000     0.994370000000     0.756190000000    -0.162718   
N135     N      0.089420000000     0.546260000000     0.779660000000    -0.0231848  
N136     N      0.406980000000     0.489880000000     0.744450000000    -0.169889   
N137     N      0.342980000000     0.497700000000     0.754060000000    -0.158191   
N138     N      0.408950000000     0.945540000000     0.780570000000    -0.0253456  
N139     N      0.001920000000     0.835810000000     0.739720000000    -0.168471   
N140     N      0.002960000000     0.902070000000     0.742360000000    -0.15321    
N141     N      0.056140000000     0.850260000000     0.737620000000    -0.0206419  
N142     N      0.499520000000     0.587470000000     0.748450000000    -0.170796   
N143     N      0.490380000000     0.650320000000     0.736590000000    -0.161885   
N144     N      0.046850000000     0.586190000000     0.716190000000    -0.0233332  
N145     N      0.906150000000     0.242650000000     0.490080000000    -0.168254   
N146     N      0.839800000000     0.242530000000     0.492840000000    -0.155112   
N147     N      0.891170000000     0.188740000000     0.494240000000    -0.0197985  
N148     N      0.654830000000     0.256480000000     0.005820000000    -0.173435   
N149     N      0.592540000000     0.247520000000     0.990360000000    -0.160098   
N150     N      0.658150000000     0.304810000000     0.475700000000    -0.0283996  
N151     N      0.745550000000     0.404770000000     0.495400000000    -0.166858   
N152     N      0.754710000000     0.340290000000     0.493400000000    -0.15894    
N153     N      0.726780000000     0.403860000000     0.441050000000    -0.0308804  
N154     N      0.735900000000     0.089930000000     0.012630000000    -0.171142   
N155     N      0.743250000000     0.154410000000     0.004580000000    -0.160164   
N156     N      0.773530000000     0.088890000000     0.055650000000    -0.025685   
N157     N      0.751720000000     0.498550000000     0.346540000000    -0.169022   
N158     N      0.743350000000     0.506290000000     0.410920000000    -0.158074   
N159     N      0.795830000000     0.034680000000     0.345840000000    -0.0257311  
N160     N      0.747590000000     0.993650000000     0.160240000000    -0.171606   
N161     N      0.737760000000     0.985700000000     0.096270000000    -0.159355   
N162     N      0.792370000000     0.458180000000     0.159650000000    -0.0247358  
N163     N      0.000390000000     0.246300000000     0.332170000000    -0.170078   
N164     N      0.995090000000     0.241490000000     0.396810000000    -0.161752   
N165     N      0.966490000000     0.292260000000     0.330700000000    -0.0259344  
N166     N      0.499180000000     0.247890000000     0.082530000000    -0.17131    
N167     N      0.492850000000     0.239640000000     0.146440000000    -0.161256   
N168     N      0.953280000000     0.281110000000     0.080240000000    -0.0253027  
N169     N      0.592810000000     0.500280000000     0.245990000000    -0.169407   
N170     N      0.656820000000     0.494370000000     0.256190000000    -0.160545   
N171     N      0.589420000000     0.046260000000     0.279660000000    -0.0228922  
N172     N      0.906980000000     0.989880000000     0.244450000000    -0.173304   
N173     N      0.842990000000     0.997700000000     0.254060000000    -0.159495   
N174     N      0.908950000000     0.445540000000     0.280560000000    -0.0255389  
N175     N      0.501920000000     0.335810000000     0.239720000000    -0.168622   
N176     N      0.502960000000     0.402070000000     0.242360000000    -0.153581   
N177     N      0.556140000000     0.350260000000     0.237620000000    -0.0206529  
N178     N      0.999520000000     0.087470000000     0.248450000000    -0.170579   
N179     N      0.990380000000     0.150320000000     0.236580000000    -0.162159   
N180     N      0.546850000000     0.086190000000     0.216190000000    -0.0231569  
N181     N      0.906150000000     0.242650000000     0.990080000000    -0.167229   
N182     N      0.839800000000     0.242530000000     0.992840000000    -0.154662   
N183     N      0.891170000000     0.188740000000     0.994240000000    -0.0189736  
N184     N      0.654830000000     0.256480000000     0.505820000000    -0.172588   
N185     N      0.592540000000     0.247520000000     0.490360000000    -0.161279   
N186     N      0.658150000000     0.304810000000     0.975700000000    -0.0285049  
N187     N      0.745550000000     0.404770000000     0.995400000000    -0.165988   
N188     N      0.754710000000     0.340290000000     0.993400000000    -0.15843    
N189     N      0.726780000000     0.403860000000     0.941050000000    -0.0309055  
N190     N      0.735900000000     0.089930000000     0.512630000000    -0.170188   
N191     N      0.743250000000     0.154410000000     0.504580000000    -0.159807   
N192     N      0.773530000000     0.088890000000     0.555650000000    -0.025723   
N193     N      0.751720000000     0.498550000000     0.846540000000    -0.169011   
N194     N      0.743350000000     0.506290000000     0.910930000000    -0.158037   
N195     N      0.795830000000     0.034680000000     0.845840000000    -0.0257237  
N196     N      0.747590000000     0.993650000000     0.660240000000    -0.171602   
N197     N      0.737760000000     0.985700000000     0.596270000000    -0.159359   
N198     N      0.792370000000     0.458180000000     0.659650000000    -0.0247409  
N199     N      0.000390000000     0.246300000000     0.832170000000    -0.170072   
N200     N      0.995090000000     0.241490000000     0.896810000000    -0.161761   
N201     N      0.966490000000     0.292260000000     0.830690000000    -0.0259386  
N202     N      0.499180000000     0.247890000000     0.582530000000    -0.171202   
N203     N      0.492850000000     0.239640000000     0.646440000000    -0.161248   
N204     N      0.953280000000     0.281110000000     0.580240000000    -0.0252266  
N205     N      0.592810000000     0.500280000000     0.746000000000    -0.169396   
N206     N      0.656820000000     0.494370000000     0.756190000000    -0.160535   
N207     N      0.589420000000     0.046260000000     0.779660000000    -0.0229009  
N208     N      0.906980000000     0.989880000000     0.744450000000    -0.173243   
N209     N      0.842990000000     0.997700000000     0.754060000000    -0.159513   
N210     N      0.908950000000     0.445540000000     0.780570000000    -0.0255026  
N211     N      0.501920000000     0.335810000000     0.739720000000    -0.168622   
N212     N      0.502960000000     0.402070000000     0.742360000000    -0.153579   
N213     N      0.556140000000     0.350260000000     0.737620000000    -0.020662   
N214     N      0.999520000000     0.087470000000     0.748450000000    -0.170574   
N215     N      0.990380000000     0.150320000000     0.736590000000    -0.162163   
N216     N      0.546850000000     0.086190000000     0.716190000000    -0.0231659  
N217     N      0.906150000000     0.742650000000     0.490080000000    -0.168272   
N218     N      0.839800000000     0.742530000000     0.492840000000    -0.155114   
N219     N      0.891170000000     0.688740000000     0.494240000000    -0.0198363  
N220     N      0.654830000000     0.756480000000     0.005820000000    -0.173438   
N221     N      0.592540000000     0.747520000000     0.990360000000    -0.160119   
N222     N      0.658150000000     0.804810000000     0.475700000000    -0.0283831  
N223     N      0.745550000000     0.904770000000     0.495400000000    -0.166816   
N224     N      0.754710000000     0.840290000000     0.493400000000    -0.158954   
N225     N      0.726780000000     0.903860000000     0.441050000000    -0.0308151  
N226     N      0.735900000000     0.589930000000     0.012630000000    -0.171525   
N227     N      0.743250000000     0.654410000000     0.004580000000    -0.160185   
N228     N      0.773530000000     0.588890000000     0.055650000000    -0.0259837  
N229     N      0.751720000000     0.998550000000     0.346540000000    -0.172196   
N230     N      0.743350000000     0.006290000000     0.410920000000    -0.154592   
N231     N      0.795830000000     0.534680000000     0.345840000000    -0.0253827  
N232     N      0.747590000000     0.493650000000     0.160240000000    -0.169087   
N233     N      0.737760000000     0.485700000000     0.096270000000    -0.16062    
N234     N      0.792370000000     0.958180000000     0.159650000000    -0.0248602  
N235     N      0.000390000000     0.746300000000     0.332170000000    -0.170084   
N236     N      0.995090000000     0.741490000000     0.396810000000    -0.161831   
N237     N      0.966490000000     0.792250000000     0.330700000000    -0.0259374  
N238     N      0.499180000000     0.747890000000     0.082530000000    -0.171339   
N239     N      0.492850000000     0.739640000000     0.146440000000    -0.161271   
N240     N      0.953280000000     0.781110000000     0.080240000000    -0.0253154  
N241     N      0.592810000000     0.000280000000     0.245990000000    -0.162125   
N242     N      0.656820000000     0.994370000000     0.256190000000    -0.162731   
N243     N      0.589420000000     0.546260000000     0.279660000000    -0.0231994  
N244     N      0.906980000000     0.489880000000     0.244450000000    -0.169966   
N245     N      0.842990000000     0.497700000000     0.254060000000    -0.158103   
N246     N      0.908950000000     0.945540000000     0.280560000000    -0.0254116  
N247     N      0.501920000000     0.835810000000     0.239720000000    -0.16862    
N248     N      0.502960000000     0.902070000000     0.242360000000    -0.153554   
N249     N      0.556140000000     0.850260000000     0.237620000000    -0.0206221  
N250     N      0.999520000000     0.587470000000     0.248450000000    -0.170965   
N251     N      0.990380000000     0.650320000000     0.236580000000    -0.162186   
N252     N      0.546850000000     0.586190000000     0.216190000000    -0.0233514  
N253     N      0.906150000000     0.742650000000     0.990080000000    -0.167241   
N254     N      0.839800000000     0.742530000000     0.992840000000    -0.15466    
N255     N      0.891170000000     0.688740000000     0.994240000000    -0.0190049  
N256     N      0.654830000000     0.756480000000     0.505820000000    -0.172587   
N257     N      0.592540000000     0.747520000000     0.490360000000    -0.161308   
N258     N      0.658150000000     0.804810000000     0.975700000000    -0.0284888  
N259     N      0.745550000000     0.904770000000     0.995400000000    -0.165943   
N260     N      0.754710000000     0.840290000000     0.993400000000    -0.158442   
N261     N      0.726780000000     0.903860000000     0.941050000000    -0.0308406  
N262     N      0.735900000000     0.589930000000     0.512630000000    -0.170563   
N263     N      0.743250000000     0.654410000000     0.504580000000    -0.159825   
N264     N      0.773530000000     0.588890000000     0.555650000000    -0.0260218  
N265     N      0.751720000000     0.998550000000     0.846540000000    -0.172174   
N266     N      0.743350000000     0.006290000000     0.910930000000    -0.154569   
N267     N      0.795830000000     0.534680000000     0.845840000000    -0.0253779  
N268     N      0.747590000000     0.493650000000     0.660240000000    -0.169083   
N269     N      0.737760000000     0.485700000000     0.596270000000    -0.160623   
N270     N      0.792370000000     0.958180000000     0.659650000000    -0.0248652  
N271     N      0.000390000000     0.746300000000     0.832170000000    -0.170078   
N272     N      0.995090000000     0.741490000000     0.896810000000    -0.16184    
N273     N      0.966490000000     0.792250000000     0.830690000000    -0.0259416  
N274     N      0.499180000000     0.747890000000     0.582530000000    -0.171231   
N275     N      0.492850000000     0.739640000000     0.646440000000    -0.161263   
N276     N      0.953280000000     0.781110000000     0.580240000000    -0.025239   
N277     N      0.592810000000     0.000280000000     0.746000000000    -0.162127   
N278     N      0.656820000000     0.994370000000     0.756190000000    -0.162717   
N279     N      0.589420000000     0.546260000000     0.779660000000    -0.0232079  
N280     N      0.906980000000     0.489880000000     0.744450000000    -0.16991    
N281     N      0.842990000000     0.497700000000     0.754060000000    -0.158124   
N282     N      0.908950000000     0.945540000000     0.780570000000    -0.0253756  
N283     N      0.501920000000     0.835810000000     0.739720000000    -0.168619   
N284     N      0.502960000000     0.902070000000     0.742360000000    -0.153553   
N285     N      0.556140000000     0.850260000000     0.737620000000    -0.0206312  
N286     N      0.999520000000     0.587470000000     0.748450000000    -0.17096    
N287     N      0.990380000000     0.650320000000     0.736590000000    -0.16219    
N288     N      0.546850000000     0.586190000000     0.716190000000    -0.0233602  
O1       O      0.502910000000     0.042130000000     0.221520000000    -0.374193   
O2       O      0.497690000000     0.448860000000     0.218360000000    -0.391817   
O3       O      0.453190000000     0.497950000000     0.219660000000    -0.392853   
O4       O      0.047120000000     0.993170000000     0.220170000000    -0.385298   
O5       O      0.046240000000     0.000810000000     0.271250000000    -0.363524   
O6       O      0.453360000000     0.487500000000     0.270190000000    -0.374328   
O7       O      0.006360000000     0.447580000000     0.269310000000    -0.385851   
O8       O      0.993490000000     0.040610000000     0.272280000000    -0.38341    
O9       O      0.467820000000     0.197940000000     0.242940000000    -0.39233    
O10      O      0.473660000000     0.291320000000     0.237270000000    -0.392221   
O11      O      0.468830000000     0.243130000000     0.193420000000    -0.393891   
O12      O      0.472930000000     0.248060000000     0.286920000000    -0.377436   
O13      O      0.023810000000     0.239190000000     0.285270000000    -0.393508   
O14      O      0.020520000000     0.241460000000     0.191520000000    -0.391925   
O15      O      0.025180000000     0.288030000000     0.240440000000    -0.382185   
O16      O      0.018980000000     0.194620000000     0.236240000000    -0.395774   
O17      O      0.296300000000     0.022160000000     0.247550000000    -0.380212   
O18      O      0.202800000000     0.020880000000     0.258090000000    -0.384302   
O19      O      0.254970000000     0.022850000000     0.299430000000    -0.367137   
O20      O      0.244050000000     0.020280000000     0.205980000000    -0.385947   
O21      O      0.253690000000     0.469620000000     0.207210000000    -0.373119   
O22      O      0.246780000000     0.471930000000     0.300950000000    -0.391318   
O23      O      0.203470000000     0.469820000000     0.250670000000    -0.392028   
O24      O      0.297020000000     0.471560000000     0.257730000000    -0.38655    
O25      O      0.264920000000     0.990410000000     0.051130000000    -0.388532   
O26      O      0.267530000000     0.005890000000     0.458380000000    -0.381545   
O27      O      0.263670000000     0.044640000000     0.512620000000    -0.368855   
O28      O      0.268760000000     0.451930000000     0.998480000000    -0.384591   
O29      O      0.217050000000     0.449130000000     0.999670000000    -0.37873    
O30      O      0.212740000000     0.042950000000     0.504410000000    -0.390618   
O31      O      0.216550000000     0.497960000000     0.455850000000    -0.385507   
O32      O      0.213360000000     0.493960000000     0.049770000000    -0.39046    
O33      O      0.999800000000     0.220590000000     0.037410000000    -0.39221    
O34      O      0.002030000000     0.217580000000     0.443600000000    -0.392514   
O35      O      0.047100000000     0.220510000000     0.492520000000    -0.396669   
O36      O      0.453170000000     0.217710000000     0.988590000000    -0.37788    
O37      O      0.451720000000     0.269280000000     0.991430000000    -0.391799   
O38      O      0.045360000000     0.271770000000     0.486570000000    -0.391399   
O39      O      0.495430000000     0.268790000000     0.442180000000    -0.394584   
O40      O      0.499370000000     0.272320000000     0.035700000000    -0.387609   
O41      O      0.248990000000     0.201960000000     0.027440000000    -0.389395   
O42      O      0.250920000000     0.295770000000     0.022140000000    -0.39247    
O43      O      0.202270000000     0.249790000000     0.028300000000    -0.392798   
O44      O      0.295820000000     0.248310000000     0.021420000000    -0.393431   
O45      O      0.291620000000     0.239630000000     0.470610000000    -0.389974   
O46      O      0.198730000000     0.252780000000     0.476790000000    -0.379451   
O47      O      0.250100000000     0.292580000000     0.470570000000    -0.386391   
O48      O      0.238870000000     0.199460000000     0.476840000000    -0.391293   
O49      O      0.373300000000     0.191390000000     0.519230000000    -0.0893554  
O50      O      0.380810000000     0.164680000000     0.477950000000    -0.099199   
O51      O      0.163330000000     0.294520000000     0.447060000000    -0.0952624  
O52      O      0.143900000000     0.332040000000     0.473160000000    -0.104523   
O53      O      0.252860000000     0.418970000000     0.434360000000    -0.1026     
O54      O      0.204010000000     0.424510000000     0.443270000000    -0.0962695  
O55      O      0.300190000000     0.086940000000     0.040190000000    -0.0870603  
O56      O      0.279480000000     0.102960000000     0.082450000000    -0.103607   
O57      O      0.280230000000     0.061140000000     0.342870000000    -0.0933648  
O58      O      0.322140000000     0.541060000000     0.360650000000    -0.102929   
O59      O      0.277750000000     0.431260000000     0.163390000000    -0.0943161  
O60      O      0.318350000000     0.452490000000     0.144000000000    -0.105451   
O61      O      0.438730000000     0.278780000000     0.329640000000    -0.0931788  
O62      O      0.462850000000     0.319720000000     0.344240000000    -0.10328    
O63      O      0.433750000000     0.258240000000     0.073310000000    -0.103661   
O64      O      0.437460000000     0.302460000000     0.095900000000    -0.106903   
O65      O      0.086300000000     0.532890000000     0.307300000000    -0.0938483  
O66      O      0.102910000000     0.073620000000     0.284170000000    -0.0999358  
O67      O      0.412030000000     0.959800000000     0.307770000000    -0.0906368  
O68      O      0.394820000000     0.418640000000     0.285880000000    -0.100558   
O69      O      0.054310000000     0.370290000000     0.214270000000    -0.0977174  
O70      O      0.080100000000     0.358640000000     0.255160000000    -0.104219   
O71      O      0.035930000000     0.082280000000     0.187570000000    -0.0956727  
O72      O      0.073860000000     0.100900000000     0.213720000000    -0.100821   
O73      O      0.502910000000     0.042130000000     0.721520000000    -0.374182   
O74      O      0.497690000000     0.448860000000     0.718360000000    -0.391792   
O75      O      0.453190000000     0.497950000000     0.719660000000    -0.392773   
O76      O      0.047120000000     0.993170000000     0.720170000000    -0.385281   
O77      O      0.046240000000     0.000810000000     0.771250000000    -0.363514   
O78      O      0.453360000000     0.487500000000     0.770200000000    -0.374154   
O79      O      0.006360000000     0.447580000000     0.769310000000    -0.385829   
O80      O      0.993490000000     0.040610000000     0.772280000000    -0.383391   
O81      O      0.467820000000     0.197940000000     0.742940000000    -0.39233    
O82      O      0.473660000000     0.291320000000     0.737270000000    -0.392215   
O83      O      0.468830000000     0.243130000000     0.693420000000    -0.393883   
O84      O      0.472930000000     0.248060000000     0.786920000000    -0.377439   
O85      O      0.023810000000     0.239190000000     0.785270000000    -0.393508   
O86      O      0.020520000000     0.241460000000     0.691520000000    -0.391908   
O87      O      0.025180000000     0.288030000000     0.740440000000    -0.382189   
O88      O      0.018980000000     0.194620000000     0.736240000000    -0.395772   
O89      O      0.296300000000     0.022160000000     0.747550000000    -0.380216   
O90      O      0.202800000000     0.020880000000     0.758100000000    -0.384279   
O91      O      0.254970000000     0.022850000000     0.799430000000    -0.367226   
O92      O      0.244050000000     0.020280000000     0.705980000000    -0.385873   
O93      O      0.253690000000     0.469620000000     0.707210000000    -0.373102   
O94      O      0.246780000000     0.471930000000     0.800950000000    -0.391331   
O95      O      0.203470000000     0.469820000000     0.750670000000    -0.392037   
O96      O      0.297020000000     0.471560000000     0.757720000000    -0.386587   
O97      O      0.264920000000     0.990410000000     0.551130000000    -0.388692   
O98      O      0.267530000000     0.005890000000     0.958380000000    -0.380356   
O99      O      0.263670000000     0.044640000000     0.012620000000    -0.3688     
O100     O      0.268760000000     0.451930000000     0.498490000000    -0.386103   
O101     O      0.217050000000     0.449130000000     0.499670000000    -0.380155   
O102     O      0.212740000000     0.042950000000     0.004410000000    -0.390794   
O103     O      0.216550000000     0.497960000000     0.955850000000    -0.384365   
O104     O      0.213360000000     0.493960000000     0.549770000000    -0.39063    
O105     O      0.999800000000     0.220590000000     0.537410000000    -0.39101    
O106     O      0.002030000000     0.217580000000     0.943600000000    -0.392697   
O107     O      0.047100000000     0.220510000000     0.992520000000    -0.396239   
O108     O      0.453170000000     0.217710000000     0.488590000000    -0.378072   
O109     O      0.451720000000     0.269280000000     0.491430000000    -0.392207   
O110     O      0.045360000000     0.271770000000     0.986570000000    -0.39119    
O111     O      0.495430000000     0.268790000000     0.942180000000    -0.394784   
O112     O      0.499370000000     0.272320000000     0.535700000000    -0.386398   
O113     O      0.248990000000     0.201960000000     0.527430000000    -0.389901   
O114     O      0.250920000000     0.295770000000     0.522140000000    -0.391056   
O115     O      0.202270000000     0.249790000000     0.528290000000    -0.39328    
O116     O      0.295820000000     0.248310000000     0.521420000000    -0.39214    
O117     O      0.291620000000     0.239630000000     0.970610000000    -0.390434   
O118     O      0.198730000000     0.252780000000     0.976790000000    -0.378094   
O119     O      0.250100000000     0.292580000000     0.970570000000    -0.386814   
O120     O      0.238870000000     0.199460000000     0.976840000000    -0.389827   
O121     O      0.373300000000     0.191390000000     0.019230000000    -0.0907216  
O122     O      0.380810000000     0.164680000000     0.977950000000    -0.0986432  
O123     O      0.163330000000     0.294520000000     0.947060000000    -0.0952305  
O124     O      0.143900000000     0.332040000000     0.973160000000    -0.104039   
O125     O      0.252860000000     0.418970000000     0.934360000000    -0.102469   
O126     O      0.204010000000     0.424510000000     0.943270000000    -0.0960856  
O127     O      0.300190000000     0.086940000000     0.540190000000    -0.0867681  
O128     O      0.279480000000     0.102960000000     0.582450000000    -0.103555   
O129     O      0.280230000000     0.061140000000     0.842870000000    -0.0933265  
O130     O      0.322140000000     0.541060000000     0.860650000000    -0.102807   
O131     O      0.277750000000     0.431260000000     0.663390000000    -0.0942908  
O132     O      0.318350000000     0.452490000000     0.644000000000    -0.105369   
O133     O      0.438730000000     0.278780000000     0.829630000000    -0.0931618  
O134     O      0.462850000000     0.319720000000     0.844240000000    -0.103226   
O135     O      0.433750000000     0.258240000000     0.573310000000    -0.103408   
O136     O      0.437460000000     0.302460000000     0.595900000000    -0.10674    
O137     O      0.086300000000     0.532890000000     0.807300000000    -0.0937708  
O138     O      0.102910000000     0.073620000000     0.784170000000    -0.0999089  
O139     O      0.412030000000     0.959800000000     0.807770000000    -0.0905622  
O140     O      0.394820000000     0.418640000000     0.785880000000    -0.100542   
O141     O      0.054310000000     0.370290000000     0.714270000000    -0.0976756  
O142     O      0.080100000000     0.358640000000     0.755170000000    -0.104214   
O143     O      0.035930000000     0.082280000000     0.687570000000    -0.0955981  
O144     O      0.073860000000     0.100900000000     0.713720000000    -0.100798   
O145     O      0.502910000000     0.542130000000     0.221520000000    -0.378374   
O146     O      0.497690000000     0.948860000000     0.218360000000    -0.391157   
O147     O      0.453190000000     0.997950000000     0.219660000000    -0.39403    
O148     O      0.047120000000     0.493170000000     0.220170000000    -0.387446   
O149     O      0.046240000000     0.500820000000     0.271250000000    -0.373787   
O150     O      0.453360000000     0.987500000000     0.270190000000    -0.374039   
O151     O      0.006360000000     0.947570000000     0.269310000000    -0.385008   
O152     O      0.993490000000     0.540610000000     0.272280000000    -0.387812   
O153     O      0.467820000000     0.697940000000     0.242940000000    -0.392357   
O154     O      0.473660000000     0.791320000000     0.237270000000    -0.392224   
O155     O      0.468830000000     0.743130000000     0.193420000000    -0.393909   
O156     O      0.472930000000     0.748060000000     0.286920000000    -0.377435   
O157     O      0.023810000000     0.739190000000     0.285270000000    -0.39351    
O158     O      0.020520000000     0.741460000000     0.191520000000    -0.391938   
O159     O      0.025180000000     0.788030000000     0.240440000000    -0.382265   
O160     O      0.018980000000     0.694620000000     0.236240000000    -0.395699   
O161     O      0.296300000000     0.522160000000     0.247550000000    -0.385519   
O162     O      0.202800000000     0.520880000000     0.258090000000    -0.389488   
O163     O      0.254970000000     0.522850000000     0.299430000000    -0.372143   
O164     O      0.244050000000     0.520280000000     0.205980000000    -0.391142   
O165     O      0.253690000000     0.969620000000     0.207210000000    -0.371529   
O166     O      0.246780000000     0.971930000000     0.300950000000    -0.389847   
O167     O      0.203470000000     0.969820000000     0.250670000000    -0.390497   
O168     O      0.297020000000     0.971560000000     0.257730000000    -0.384909   
O169     O      0.264920000000     0.490410000000     0.051130000000    -0.388803   
O170     O      0.267530000000     0.505890000000     0.458380000000    -0.384701   
O171     O      0.263670000000     0.544640000000     0.512620000000    -0.373044   
O172     O      0.268760000000     0.951930000000     0.998480000000    -0.383976   
O173     O      0.217050000000     0.949130000000     0.999670000000    -0.378148   
O174     O      0.212740000000     0.542950000000     0.504410000000    -0.394613   
O175     O      0.216550000000     0.997960000000     0.455850000000    -0.390696   
O176     O      0.213360000000     0.993960000000     0.049770000000    -0.391334   
O177     O      0.999800000000     0.720590000000     0.037410000000    -0.392327   
O178     O      0.002030000000     0.717590000000     0.443600000000    -0.392776   
O179     O      0.047100000000     0.720510000000     0.492520000000    -0.396766   
O180     O      0.453170000000     0.717710000000     0.988590000000    -0.377983   
O181     O      0.451720000000     0.769280000000     0.991430000000    -0.391847   
O182     O      0.045360000000     0.771770000000     0.486570000000    -0.391463   
O183     O      0.495430000000     0.768790000000     0.442180000000    -0.394695   
O184     O      0.499370000000     0.772320000000     0.035700000000    -0.387679   
O185     O      0.248990000000     0.701960000000     0.027440000000    -0.389417   
O186     O      0.250920000000     0.795770000000     0.022140000000    -0.392473   
O187     O      0.202270000000     0.749790000000     0.028300000000    -0.392805   
O188     O      0.295820000000     0.748310000000     0.021420000000    -0.393444   
O189     O      0.291620000000     0.739630000000     0.470610000000    -0.389979   
O190     O      0.198730000000     0.752780000000     0.476790000000    -0.379453   
O191     O      0.250100000000     0.792580000000     0.470570000000    -0.386388   
O192     O      0.238870000000     0.699460000000     0.476840000000    -0.391313   
O193     O      0.373300000000     0.691390000000     0.519230000000    -0.089541   
O194     O      0.380810000000     0.664680000000     0.477950000000    -0.0996362  
O195     O      0.163330000000     0.794520000000     0.447060000000    -0.0952956  
O196     O      0.143900000000     0.832040000000     0.473160000000    -0.104733   
O197     O      0.252860000000     0.918970000000     0.434360000000    -0.103211   
O198     O      0.204010000000     0.924510000000     0.443270000000    -0.0967735  
O199     O      0.300190000000     0.586950000000     0.040190000000    -0.0881092  
O200     O      0.279480000000     0.602960000000     0.082450000000    -0.104378   
O201     O      0.280230000000     0.561140000000     0.342870000000    -0.0936779  
O202     O      0.322140000000     0.041060000000     0.360650000000    -0.101065   
O203     O      0.277750000000     0.931260000000     0.163390000000    -0.0943233  
O204     O      0.318350000000     0.952490000000     0.144000000000    -0.106106   
O205     O      0.438730000000     0.778780000000     0.329640000000    -0.0931848  
O206     O      0.462850000000     0.819720000000     0.344240000000    -0.103426   
O207     O      0.433750000000     0.758240000000     0.073310000000    -0.103712   
O208     O      0.437460000000     0.802460000000     0.095900000000    -0.107027   
O209     O      0.086300000000     0.032890000000     0.307300000000    -0.0925115  
O210     O      0.102910000000     0.573620000000     0.284170000000    -0.100258   
O211     O      0.412030000000     0.459800000000     0.307770000000    -0.0896744  
O212     O      0.394820000000     0.918640000000     0.285880000000    -0.100696   
O213     O      0.054310000000     0.870290000000     0.214270000000    -0.097875   
O214     O      0.080100000000     0.858640000000     0.255160000000    -0.104367   
O215     O      0.035930000000     0.582280000000     0.187570000000    -0.0968203  
O216     O      0.073860000000     0.600900000000     0.213720000000    -0.101321   
O217     O      0.502910000000     0.542130000000     0.721520000000    -0.378356   
O218     O      0.497690000000     0.948860000000     0.718360000000    -0.391133   
O219     O      0.453190000000     0.997950000000     0.719660000000    -0.393948   
O220     O      0.047120000000     0.493170000000     0.720170000000    -0.387424   
O221     O      0.046240000000     0.500820000000     0.771250000000    -0.373756   
O222     O      0.453360000000     0.987500000000     0.770200000000    -0.373866   
O223     O      0.006360000000     0.947570000000     0.769310000000    -0.384987   
O224     O      0.993490000000     0.540610000000     0.772280000000    -0.387785   
O225     O      0.467820000000     0.697940000000     0.742940000000    -0.392356   
O226     O      0.473660000000     0.791320000000     0.737270000000    -0.392218   
O227     O      0.468830000000     0.743130000000     0.693420000000    -0.393901   
O228     O      0.472930000000     0.748060000000     0.786920000000    -0.377438   
O229     O      0.023810000000     0.739190000000     0.785270000000    -0.393509   
O230     O      0.020520000000     0.741460000000     0.691520000000    -0.39192    
O231     O      0.025180000000     0.788030000000     0.740440000000    -0.382269   
O232     O      0.018980000000     0.694620000000     0.736240000000    -0.395696   
O233     O      0.296300000000     0.522160000000     0.747550000000    -0.385514   
O234     O      0.202800000000     0.520880000000     0.758100000000    -0.389454   
O235     O      0.254970000000     0.522850000000     0.799430000000    -0.37222    
O236     O      0.244050000000     0.520280000000     0.705980000000    -0.391062   
O237     O      0.253690000000     0.969620000000     0.707210000000    -0.371514   
O238     O      0.246780000000     0.971930000000     0.800950000000    -0.389863   
O239     O      0.203470000000     0.969820000000     0.750670000000    -0.390509   
O240     O      0.297020000000     0.971560000000     0.757720000000    -0.384948   
O241     O      0.264920000000     0.490410000000     0.551130000000    -0.388965   
O242     O      0.267530000000     0.505890000000     0.958380000000    -0.3835     
O243     O      0.263670000000     0.544640000000     0.012620000000    -0.372988   
O244     O      0.268760000000     0.951930000000     0.498490000000    -0.385493   
O245     O      0.217050000000     0.949130000000     0.499670000000    -0.379579   
O246     O      0.212740000000     0.542950000000     0.004410000000    -0.39479    
O247     O      0.216550000000     0.997960000000     0.955850000000    -0.389528   
O248     O      0.213360000000     0.993960000000     0.549770000000    -0.391503   
O249     O      0.999800000000     0.720590000000     0.537410000000    -0.39112    
O250     O      0.002030000000     0.717590000000     0.943600000000    -0.39296    
O251     O      0.047100000000     0.720510000000     0.992520000000    -0.396332   
O252     O      0.453170000000     0.717710000000     0.488590000000    -0.378177   
O253     O      0.451720000000     0.769280000000     0.491430000000    -0.392257   
O254     O      0.045360000000     0.771770000000     0.986570000000    -0.391253   
O255     O      0.495430000000     0.768790000000     0.942180000000    -0.394896   
O256     O      0.499370000000     0.772320000000     0.535700000000    -0.386461   
O257     O      0.248990000000     0.701960000000     0.527430000000    -0.389925   
O258     O      0.250920000000     0.795770000000     0.522140000000    -0.391051   
O259     O      0.202270000000     0.749790000000     0.528290000000    -0.393289   
O260     O      0.295820000000     0.748310000000     0.521420000000    -0.392144   
O261     O      0.291620000000     0.739630000000     0.970610000000    -0.390441   
O262     O      0.198730000000     0.752780000000     0.976790000000    -0.378088   
O263     O      0.250100000000     0.792580000000     0.970570000000    -0.386813   
O264     O      0.238870000000     0.699460000000     0.976840000000    -0.389837   
O265     O      0.373300000000     0.691390000000     0.019230000000    -0.0909161  
O266     O      0.380810000000     0.664680000000     0.977950000000    -0.0990741  
O267     O      0.163330000000     0.794520000000     0.947060000000    -0.0952634  
O268     O      0.143900000000     0.832040000000     0.973160000000    -0.104245   
O269     O      0.252860000000     0.918970000000     0.934360000000    -0.103076   
O270     O      0.204010000000     0.924510000000     0.943270000000    -0.0965871  
O271     O      0.300190000000     0.586950000000     0.540190000000    -0.0878155  
O272     O      0.279480000000     0.602960000000     0.582450000000    -0.104326   
O273     O      0.280230000000     0.561140000000     0.842870000000    -0.0936384  
O274     O      0.322140000000     0.041060000000     0.860650000000    -0.10095    
O275     O      0.277750000000     0.931260000000     0.663390000000    -0.094298   
O276     O      0.318350000000     0.952490000000     0.644000000000    -0.106023   
O277     O      0.438730000000     0.778780000000     0.829630000000    -0.0931676  
O278     O      0.462850000000     0.819720000000     0.844240000000    -0.103371   
O279     O      0.433750000000     0.758240000000     0.573310000000    -0.103457   
O280     O      0.437460000000     0.802460000000     0.595900000000    -0.106864   
O281     O      0.086300000000     0.032890000000     0.807300000000    -0.0924386  
O282     O      0.102910000000     0.573620000000     0.784170000000    -0.10023    
O283     O      0.412030000000     0.459800000000     0.807770000000    -0.0896023  
O284     O      0.394820000000     0.918640000000     0.785880000000    -0.100679   
O285     O      0.054310000000     0.870290000000     0.714270000000    -0.0978332  
O286     O      0.080100000000     0.858640000000     0.755170000000    -0.104362   
O287     O      0.035930000000     0.582280000000     0.687570000000    -0.0967444  
O288     O      0.073860000000     0.600900000000     0.713720000000    -0.101298   
O289     O      0.002910000000     0.042130000000     0.221520000000    -0.37361    
O290     O      0.997690000000     0.448860000000     0.218360000000    -0.392994   
O291     O      0.953190000000     0.497950000000     0.219660000000    -0.393376   
O292     O      0.547120000000     0.993170000000     0.220170000000    -0.385195   
O293     O      0.546240000000     0.000810000000     0.271250000000    -0.364024   
O294     O      0.953360000000     0.487500000000     0.270190000000    -0.374256   
O295     O      0.506360000000     0.447580000000     0.269310000000    -0.386261   
O296     O      0.493490000000     0.040610000000     0.272280000000    -0.383614   
O297     O      0.967820000000     0.197940000000     0.242940000000    -0.392168   
O298     O      0.973670000000     0.291320000000     0.237270000000    -0.392977   
O299     O      0.968830000000     0.243130000000     0.193420000000    -0.393712   
O300     O      0.972930000000     0.248060000000     0.286920000000    -0.377114   
O301     O      0.523810000000     0.239190000000     0.285270000000    -0.394281   
O302     O      0.520520000000     0.241460000000     0.191520000000    -0.392567   
O303     O      0.525180000000     0.288030000000     0.240440000000    -0.381985   
O304     O      0.518980000000     0.194620000000     0.236240000000    -0.396392   
O305     O      0.796310000000     0.022160000000     0.247550000000    -0.380258   
O306     O      0.702800000000     0.020880000000     0.258090000000    -0.384194   
O307     O      0.754970000000     0.022850000000     0.299430000000    -0.367144   
O308     O      0.744050000000     0.020280000000     0.205980000000    -0.38593    
O309     O      0.753690000000     0.469620000000     0.207210000000    -0.373119   
O310     O      0.746780000000     0.471930000000     0.300950000000    -0.391321   
O311     O      0.703470000000     0.469820000000     0.250670000000    -0.392014   
O312     O      0.797020000000     0.471560000000     0.257730000000    -0.386566   
O313     O      0.764910000000     0.990410000000     0.051130000000    -0.388677   
O314     O      0.767530000000     0.005890000000     0.458380000000    -0.381536   
O315     O      0.763670000000     0.044640000000     0.512620000000    -0.36885    
O316     O      0.768760000000     0.451930000000     0.998480000000    -0.384578   
O317     O      0.717050000000     0.449130000000     0.999670000000    -0.378733   
O318     O      0.712740000000     0.042950000000     0.504410000000    -0.390621   
O319     O      0.716550000000     0.497960000000     0.455850000000    -0.385506   
O320     O      0.713360000000     0.493960000000     0.049770000000    -0.390519   
O321     O      0.499790000000     0.220590000000     0.037410000000    -0.391546   
O322     O      0.502030000000     0.217580000000     0.443600000000    -0.393105   
O323     O      0.547100000000     0.220510000000     0.492520000000    -0.396636   
O324     O      0.953170000000     0.217710000000     0.988590000000    -0.378484   
O325     O      0.951720000000     0.269280000000     0.991430000000    -0.391794   
O326     O      0.545360000000     0.271770000000     0.486570000000    -0.391955   
O327     O      0.995430000000     0.268790000000     0.442180000000    -0.394461   
O328     O      0.999370000000     0.272320000000     0.035700000000    -0.387658   
O329     O      0.748990000000     0.201960000000     0.027440000000    -0.389395   
O330     O      0.750920000000     0.295770000000     0.022140000000    -0.392468   
O331     O      0.702270000000     0.249790000000     0.028300000000    -0.392886   
O332     O      0.795820000000     0.248310000000     0.021420000000    -0.393427   
O333     O      0.791620000000     0.239630000000     0.470610000000    -0.389975   
O334     O      0.698730000000     0.252780000000     0.476790000000    -0.379524   
O335     O      0.750100000000     0.292580000000     0.470570000000    -0.38639    
O336     O      0.738870000000     0.199460000000     0.476840000000    -0.391294   
O337     O      0.873300000000     0.191390000000     0.519230000000    -0.0893865  
O338     O      0.880810000000     0.164680000000     0.477950000000    -0.0992618  
O339     O      0.663330000000     0.294520000000     0.447060000000    -0.095277   
O340     O      0.643900000000     0.332040000000     0.473160000000    -0.104591   
O341     O      0.752860000000     0.418970000000     0.434360000000    -0.102606   
O342     O      0.704000000000     0.424510000000     0.443270000000    -0.0962986  
O343     O      0.800190000000     0.086940000000     0.040190000000    -0.0870777  
O344     O      0.779480000000     0.102960000000     0.082450000000    -0.103619   
O345     O      0.780230000000     0.061140000000     0.342870000000    -0.0933701  
O346     O      0.822130000000     0.541060000000     0.360650000000    -0.102952   
O347     O      0.777750000000     0.431260000000     0.163390000000    -0.0943201  
O348     O      0.818350000000     0.452490000000     0.144000000000    -0.105477   
O349     O      0.938730000000     0.278780000000     0.329640000000    -0.0931994  
O350     O      0.962850000000     0.319720000000     0.344240000000    -0.103469   
O351     O      0.933750000000     0.258240000000     0.073310000000    -0.103702   
O352     O      0.937460000000     0.302460000000     0.095900000000    -0.106971   
O353     O      0.586300000000     0.532890000000     0.307300000000    -0.0939952  
O354     O      0.602910000000     0.073620000000     0.284170000000    -0.100002   
O355     O      0.912040000000     0.959800000000     0.307770000000    -0.0906891  
O356     O      0.894820000000     0.418640000000     0.285880000000    -0.100612   
O357     O      0.554310000000     0.370290000000     0.214270000000    -0.0978204  
O358     O      0.580100000000     0.358640000000     0.255160000000    -0.104252   
O359     O      0.535930000000     0.082280000000     0.187570000000    -0.0958842  
O360     O      0.573860000000     0.100900000000     0.213720000000    -0.100848   
O361     O      0.002910000000     0.042130000000     0.721520000000    -0.373595   
O362     O      0.997690000000     0.448860000000     0.718360000000    -0.392977   
O363     O      0.953190000000     0.497950000000     0.719660000000    -0.393299   
O364     O      0.547120000000     0.993170000000     0.720170000000    -0.385177   
O365     O      0.546240000000     0.000810000000     0.771250000000    -0.364017   
O366     O      0.953360000000     0.487500000000     0.770200000000    -0.374082   
O367     O      0.506360000000     0.447580000000     0.769310000000    -0.386241   
O368     O      0.493490000000     0.040610000000     0.772280000000    -0.383597   
O369     O      0.967820000000     0.197940000000     0.742940000000    -0.392167   
O370     O      0.973670000000     0.291320000000     0.737270000000    -0.392975   
O371     O      0.968830000000     0.243130000000     0.693420000000    -0.393702   
O372     O      0.972930000000     0.248060000000     0.786920000000    -0.377114   
O373     O      0.523810000000     0.239190000000     0.785270000000    -0.394285   
O374     O      0.520520000000     0.241460000000     0.691520000000    -0.392554   
O375     O      0.525180000000     0.288030000000     0.740440000000    -0.381988   
O376     O      0.518980000000     0.194620000000     0.736240000000    -0.396394   
O377     O      0.796310000000     0.022160000000     0.747550000000    -0.380263   
O378     O      0.702800000000     0.020880000000     0.758100000000    -0.384171   
O379     O      0.754970000000     0.022850000000     0.799430000000    -0.367233   
O380     O      0.744050000000     0.020280000000     0.705980000000    -0.385855   
O381     O      0.753690000000     0.469620000000     0.707210000000    -0.373102   
O382     O      0.746780000000     0.471930000000     0.800950000000    -0.391333   
O383     O      0.703470000000     0.469820000000     0.750670000000    -0.392024   
O384     O      0.797020000000     0.471560000000     0.757720000000    -0.386603   
O385     O      0.764910000000     0.990410000000     0.551130000000    -0.388837   
O386     O      0.767530000000     0.005890000000     0.958380000000    -0.380351   
O387     O      0.763670000000     0.044640000000     0.012620000000    -0.368796   
O388     O      0.768760000000     0.451930000000     0.498490000000    -0.386085   
O389     O      0.717050000000     0.449130000000     0.499670000000    -0.380154   
O390     O      0.712740000000     0.042950000000     0.004410000000    -0.390796   
O391     O      0.716550000000     0.497960000000     0.955850000000    -0.384368   
O392     O      0.713360000000     0.493960000000     0.549770000000    -0.390688   
O393     O      0.499790000000     0.220590000000     0.537410000000    -0.390342   
O394     O      0.502030000000     0.217580000000     0.943600000000    -0.393292   
O395     O      0.547100000000     0.220510000000     0.992520000000    -0.396206   
O396     O      0.953170000000     0.217710000000     0.488590000000    -0.378672   
O397     O      0.951720000000     0.269280000000     0.491430000000    -0.392201   
O398     O      0.545360000000     0.271770000000     0.986570000000    -0.39175    
O399     O      0.995430000000     0.268790000000     0.942180000000    -0.39466    
O400     O      0.999370000000     0.272320000000     0.535700000000    -0.386454   
O401     O      0.748990000000     0.201960000000     0.527430000000    -0.3899     
O402     O      0.750920000000     0.295770000000     0.522140000000    -0.391057   
O403     O      0.702270000000     0.249790000000     0.528290000000    -0.393368   
O404     O      0.795820000000     0.248310000000     0.521420000000    -0.39214    
O405     O      0.791620000000     0.239630000000     0.970610000000    -0.390434   
O406     O      0.698730000000     0.252780000000     0.976790000000    -0.378169   
O407     O      0.750100000000     0.292580000000     0.970570000000    -0.386812   
O408     O      0.738870000000     0.199460000000     0.976840000000    -0.389831   
O409     O      0.873300000000     0.191390000000     0.019230000000    -0.0907472  
O410     O      0.880810000000     0.164680000000     0.977950000000    -0.0987081  
O411     O      0.663330000000     0.294520000000     0.947060000000    -0.0952453  
O412     O      0.643900000000     0.332040000000     0.973160000000    -0.104108   
O413     O      0.752860000000     0.418970000000     0.934360000000    -0.102475   
O414     O      0.704000000000     0.424510000000     0.943270000000    -0.0961151  
O415     O      0.800190000000     0.086940000000     0.540190000000    -0.0867866  
O416     O      0.779480000000     0.102960000000     0.582450000000    -0.103567   
O417     O      0.780230000000     0.061140000000     0.842870000000    -0.0933319  
O418     O      0.822130000000     0.541060000000     0.860650000000    -0.102831   
O419     O      0.777750000000     0.431260000000     0.663390000000    -0.0942948  
O420     O      0.818350000000     0.452490000000     0.644000000000    -0.105395   
O421     O      0.938730000000     0.278780000000     0.829630000000    -0.0931825  
O422     O      0.962850000000     0.319720000000     0.844240000000    -0.103418   
O423     O      0.933750000000     0.258240000000     0.573310000000    -0.10345    
O424     O      0.937460000000     0.302460000000     0.595900000000    -0.10681    
O425     O      0.586300000000     0.532890000000     0.807300000000    -0.0939184  
O426     O      0.602910000000     0.073620000000     0.784170000000    -0.0999753  
O427     O      0.912040000000     0.959800000000     0.807770000000    -0.0906152  
O428     O      0.894820000000     0.418640000000     0.785880000000    -0.100596   
O429     O      0.554310000000     0.370290000000     0.714270000000    -0.0977793  
O430     O      0.580100000000     0.358640000000     0.755170000000    -0.104247   
O431     O      0.535930000000     0.082280000000     0.687570000000    -0.0958108  
O432     O      0.573860000000     0.100900000000     0.713720000000    -0.100826   
O433     O      0.002910000000     0.542130000000     0.221520000000    -0.377789   
O434     O      0.997690000000     0.948860000000     0.218360000000    -0.392321   
O435     O      0.953190000000     0.997950000000     0.219660000000    -0.394542   
O436     O      0.547120000000     0.493170000000     0.220170000000    -0.387344   
O437     O      0.546240000000     0.500820000000     0.271250000000    -0.374307   
O438     O      0.953360000000     0.987500000000     0.270190000000    -0.373968   
O439     O      0.506360000000     0.947570000000     0.269310000000    -0.385409   
O440     O      0.493490000000     0.540610000000     0.272280000000    -0.388036   
O441     O      0.967820000000     0.697940000000     0.242940000000    -0.392196   
O442     O      0.973670000000     0.791320000000     0.237270000000    -0.392976   
O443     O      0.968830000000     0.743130000000     0.193420000000    -0.393732   
O444     O      0.972930000000     0.748060000000     0.286920000000    -0.377116   
O445     O      0.523810000000     0.739190000000     0.285270000000    -0.394276   
O446     O      0.520520000000     0.741460000000     0.191520000000    -0.392574   
O447     O      0.525180000000     0.788030000000     0.240440000000    -0.382065   
O448     O      0.518980000000     0.694620000000     0.236240000000    -0.396312   
O449     O      0.796310000000     0.522160000000     0.247550000000    -0.385558   
O450     O      0.702800000000     0.520880000000     0.258090000000    -0.389379   
O451     O      0.754970000000     0.522850000000     0.299430000000    -0.372145   
O452     O      0.744050000000     0.520280000000     0.205980000000    -0.391119   
O453     O      0.753690000000     0.969620000000     0.207210000000    -0.371531   
O454     O      0.746780000000     0.971930000000     0.300950000000    -0.389851   
O455     O      0.703470000000     0.969820000000     0.250670000000    -0.390484   
O456     O      0.797020000000     0.971560000000     0.257730000000    -0.384926   
O457     O      0.764910000000     0.490410000000     0.051130000000    -0.388948   
O458     O      0.767530000000     0.505890000000     0.458380000000    -0.384687   
O459     O      0.763670000000     0.544640000000     0.512620000000    -0.373034   
O460     O      0.768760000000     0.951930000000     0.998480000000    -0.383964   
O461     O      0.717050000000     0.949130000000     0.999670000000    -0.378151   
O462     O      0.712740000000     0.542950000000     0.504410000000    -0.394614   
O463     O      0.716550000000     0.997960000000     0.455850000000    -0.390691   
O464     O      0.713360000000     0.993960000000     0.049770000000    -0.391392   
O465     O      0.499790000000     0.720590000000     0.037410000000    -0.391669   
O466     O      0.502030000000     0.717590000000     0.443600000000    -0.393364   
O467     O      0.547100000000     0.720510000000     0.492520000000    -0.396733   
O468     O      0.953170000000     0.717710000000     0.988590000000    -0.378584   
O469     O      0.951720000000     0.769280000000     0.991430000000    -0.391843   
O470     O      0.545360000000     0.771770000000     0.486570000000    -0.392014   
O471     O      0.995430000000     0.768790000000     0.442180000000    -0.394572   
O472     O      0.999370000000     0.772320000000     0.035700000000    -0.387726   
O473     O      0.748990000000     0.701960000000     0.027440000000    -0.389417   
O474     O      0.750920000000     0.795770000000     0.022140000000    -0.392471   
O475     O      0.702270000000     0.749790000000     0.028300000000    -0.392893   
O476     O      0.795820000000     0.748310000000     0.021420000000    -0.39344    
O477     O      0.791620000000     0.739630000000     0.470610000000    -0.38998    
O478     O      0.698730000000     0.752780000000     0.476790000000    -0.379526   
O479     O      0.750100000000     0.792580000000     0.470570000000    -0.386387   
O480     O      0.738870000000     0.699460000000     0.476840000000    -0.391314   
O481     O      0.873300000000     0.691390000000     0.519230000000    -0.0895713  
O482     O      0.880810000000     0.664680000000     0.477950000000    -0.0996972  
O483     O      0.663330000000     0.794520000000     0.447060000000    -0.0953102  
O484     O      0.643900000000     0.832040000000     0.473160000000    -0.1048     
O485     O      0.752860000000     0.918970000000     0.434360000000    -0.103216   
O486     O      0.704000000000     0.924510000000     0.443270000000    -0.0968026  
O487     O      0.800190000000     0.586950000000     0.040190000000    -0.0881244  
O488     O      0.779480000000     0.602960000000     0.082450000000    -0.104389   
O489     O      0.780230000000     0.561140000000     0.342870000000    -0.0936827  
O490     O      0.822130000000     0.041060000000     0.360650000000    -0.101093   
O491     O      0.777750000000     0.931260000000     0.163390000000    -0.0943272  
O492     O      0.818350000000     0.952490000000     0.144000000000    -0.10613    
O493     O      0.938730000000     0.778780000000     0.329640000000    -0.0932052  
O494     O      0.962850000000     0.819720000000     0.344240000000    -0.103612   
O495     O      0.933750000000     0.758240000000     0.073310000000    -0.103752   
O496     O      0.937460000000     0.802460000000     0.095900000000    -0.107094   
O497     O      0.586300000000     0.032890000000     0.307300000000    -0.0926565  
O498     O      0.602910000000     0.573620000000     0.284170000000    -0.100324   
O499     O      0.912040000000     0.459800000000     0.307770000000    -0.0897301  
O500     O      0.894820000000     0.918640000000     0.285880000000    -0.100749   
O501     O      0.554310000000     0.870290000000     0.214270000000    -0.0979775  
O502     O      0.580100000000     0.858640000000     0.255160000000    -0.1044     
O503     O      0.535930000000     0.582280000000     0.187570000000    -0.0970328  
O504     O      0.573860000000     0.600900000000     0.213720000000    -0.10135    
O505     O      0.002910000000     0.542130000000     0.721520000000    -0.377768   
O506     O      0.997690000000     0.948860000000     0.718360000000    -0.392304   
O507     O      0.953190000000     0.997950000000     0.719660000000    -0.394464   
O508     O      0.547120000000     0.493170000000     0.720170000000    -0.387322   
O509     O      0.546240000000     0.500820000000     0.771250000000    -0.37428    
O510     O      0.953360000000     0.987500000000     0.770200000000    -0.373795   
O511     O      0.506360000000     0.947570000000     0.769310000000    -0.385391   
O512     O      0.493490000000     0.540610000000     0.772280000000    -0.38801    
O513     O      0.967820000000     0.697940000000     0.742940000000    -0.392195   
O514     O      0.973670000000     0.791320000000     0.737270000000    -0.392973   
O515     O      0.968830000000     0.743130000000     0.693420000000    -0.393722   
O516     O      0.972930000000     0.748060000000     0.786920000000    -0.377117   
O517     O      0.523810000000     0.739190000000     0.785270000000    -0.39428    
O518     O      0.520520000000     0.741460000000     0.691520000000    -0.392562   
O519     O      0.525180000000     0.788030000000     0.740440000000    -0.382069   
O520     O      0.518980000000     0.694620000000     0.736240000000    -0.396314   
O521     O      0.796310000000     0.522160000000     0.747550000000    -0.385553   
O522     O      0.702800000000     0.520880000000     0.758100000000    -0.389345   
O523     O      0.754970000000     0.522850000000     0.799430000000    -0.372221   
O524     O      0.744050000000     0.520280000000     0.705980000000    -0.39104    
O525     O      0.753690000000     0.969620000000     0.707210000000    -0.371516   
O526     O      0.746780000000     0.971930000000     0.800950000000    -0.389867   
O527     O      0.703470000000     0.969820000000     0.750670000000    -0.390496   
O528     O      0.797020000000     0.971560000000     0.757720000000    -0.384966   
O529     O      0.764910000000     0.490410000000     0.551130000000    -0.38911    
O530     O      0.767530000000     0.505890000000     0.958380000000    -0.38349    
O531     O      0.763670000000     0.544640000000     0.012620000000    -0.372979   
O532     O      0.768760000000     0.951930000000     0.498490000000    -0.385477   
O533     O      0.717050000000     0.949130000000     0.499670000000    -0.379579   
O534     O      0.712740000000     0.542950000000     0.004410000000    -0.39479    
O535     O      0.716550000000     0.997960000000     0.955850000000    -0.389527   
O536     O      0.713360000000     0.993960000000     0.549770000000    -0.391561   
O537     O      0.499790000000     0.720590000000     0.537410000000    -0.390458   
O538     O      0.502030000000     0.717590000000     0.943600000000    -0.393552   
O539     O      0.547100000000     0.720510000000     0.992520000000    -0.396299   
O540     O      0.953170000000     0.717710000000     0.488590000000    -0.378774   
O541     O      0.951720000000     0.769280000000     0.491430000000    -0.392252   
O542     O      0.545360000000     0.771770000000     0.986570000000    -0.391808   
O543     O      0.995430000000     0.768790000000     0.942180000000    -0.394771   
O544     O      0.999370000000     0.772320000000     0.535700000000    -0.386516   
O545     O      0.748990000000     0.701960000000     0.527430000000    -0.389924   
O546     O      0.750920000000     0.795770000000     0.522140000000    -0.391053   
O547     O      0.702270000000     0.749790000000     0.528290000000    -0.393377   
O548     O      0.795820000000     0.748310000000     0.521420000000    -0.392144   
O549     O      0.791620000000     0.739630000000     0.970610000000    -0.390441   
O550     O      0.698730000000     0.752780000000     0.976790000000    -0.378163   
O551     O      0.750100000000     0.792580000000     0.970570000000    -0.386811   
O552     O      0.738870000000     0.699460000000     0.976840000000    -0.389841   
O553     O      0.873300000000     0.691390000000     0.019230000000    -0.0909409  
O554     O      0.880810000000     0.664680000000     0.977950000000    -0.0991373  
O555     O      0.663330000000     0.794520000000     0.947060000000    -0.0952782  
O556     O      0.643900000000     0.832040000000     0.973160000000    -0.104313   
O557     O      0.752860000000     0.918970000000     0.934360000000    -0.103082   
O558     O      0.704000000000     0.924510000000     0.943270000000    -0.0966165  
O559     O      0.800190000000     0.586950000000     0.540190000000    -0.0878318  
O560     O      0.779480000000     0.602960000000     0.582450000000    -0.104337   
O561     O      0.780230000000     0.561140000000     0.842870000000    -0.0936434  
O562     O      0.822130000000     0.041060000000     0.860650000000    -0.100978   
O563     O      0.777750000000     0.931260000000     0.663390000000    -0.094302   
O564     O      0.818350000000     0.952490000000     0.644000000000    -0.106048   
O565     O      0.938730000000     0.778780000000     0.829630000000    -0.0931881  
O566     O      0.962850000000     0.819720000000     0.844240000000    -0.10356    
O567     O      0.933750000000     0.758240000000     0.573310000000    -0.103498   
O568     O      0.937460000000     0.802460000000     0.595900000000    -0.106932   
O569     O      0.586300000000     0.032890000000     0.807300000000    -0.0925843  
O570     O      0.602910000000     0.573620000000     0.784170000000    -0.100296   
O571     O      0.912040000000     0.459800000000     0.807770000000    -0.0896588  
O572     O      0.894820000000     0.918640000000     0.785880000000    -0.100732   
O573     O      0.554310000000     0.870290000000     0.714270000000    -0.0979363  
O574     O      0.580100000000     0.858640000000     0.755170000000    -0.104395   
O575     O      0.535930000000     0.582280000000     0.687570000000    -0.0969582  
O576     O      0.573860000000     0.600900000000     0.713720000000    -0.101327   


