data_structure

_audit_creation_method RASPA-1.0
_audit_creation_date 2023-5-19
_audit_author_name 'Poobodin Mano'

_cell_length_a    40.837
_cell_length_b    42.8451
_cell_length_c    42.6147
_cell_angle_alpha 90
_cell_angle_beta  90
_cell_angle_gamma 90
_cell_volume      74561.5

_symmetry_cell_setting          triclinic
_symmetry_space_group_name_Hall 'P 1'
_symmetry_space_group_name_H-M  'P 1'
_symmetry_Int_Tables_number     1

_symmetry_equiv_pos_as_xyz 'x,y,z'

loop_
_atom_site_label
_atom_site_type_symbol
_atom_site_fract_x
_atom_site_fract_y
_atom_site_fract_z
_atom_site_charge
Br1      Br     0.447980000000     0.254370000000     0.426290000000    -0.231093   
Br2      Br     0.112340000000     0.183300000000     0.470290000000    -0.226023   
Br3      Br     0.217140000000     0.413380000000     0.447730000000    -0.212098   
Br4      Br     0.242490000000     0.092370000000     0.066320000000    -0.243062   
Br5      Br     0.299170000000     0.443540000000     0.412680000000    -0.213963   
Br6      Br     0.341740000000     0.486970000000     0.163060000000    -0.233397   
Br7      Br     0.007990000000     0.185450000000     0.347310000000    -0.207572   
Br8      Br     0.466130000000     0.205690000000     0.169480000000    -0.227494   
Br9      Br     0.117910000000     0.425160000000     0.235760000000    -0.219486   
Br10     Br     0.425930000000     0.436080000000     0.244540000000    -0.230723   
Br11     Br     0.052900000000     0.400260000000     0.183460000000    -0.204197   
Br12     Br     0.040490000000     0.105870000000     0.317080000000    -0.205038   
Br13     Br     0.447980000000     0.254370000000     0.926290000000    -0.23       
Br14     Br     0.112340000000     0.183300000000     0.970290000000    -0.214908   
Br15     Br     0.217140000000     0.413380000000     0.947730000000    -0.209658   
Br16     Br     0.242490000000     0.092370000000     0.566320000000    -0.242408   
Br17     Br     0.299170000000     0.443540000000     0.912680000000    -0.211049   
Br18     Br     0.341740000000     0.486970000000     0.663060000000    -0.233071   
Br19     Br     0.007990000000     0.185450000000     0.847310000000    -0.20704    
Br20     Br     0.466130000000     0.205690000000     0.669480000000    -0.227201   
Br21     Br     0.117910000000     0.425160000000     0.735760000000    -0.21931    
Br22     Br     0.425930000000     0.436080000000     0.744540000000    -0.230528   
Br23     Br     0.052900000000     0.400260000000     0.683460000000    -0.203571   
Br24     Br     0.040490000000     0.105870000000     0.817080000000    -0.204266   
Br25     Br     0.447980000000     0.754370000000     0.426290000000    -0.231059   
Br26     Br     0.112340000000     0.683300000000     0.470290000000    -0.225926   
Br27     Br     0.217140000000     0.913380000000     0.447730000000    -0.21162    
Br28     Br     0.242490000000     0.592370000000     0.066320000000    -0.242929   
Br29     Br     0.299170000000     0.943540000000     0.412680000000    -0.213716   
Br30     Br     0.341740000000     0.986970000000     0.163060000000    -0.231517   
Br31     Br     0.007990000000     0.685450000000     0.347310000000    -0.207515   
Br32     Br     0.466130000000     0.705690000000     0.169480000000    -0.227448   
Br33     Br     0.117910000000     0.925160000000     0.235760000000    -0.219409   
Br34     Br     0.425930000000     0.936080000000     0.244540000000    -0.23055    
Br35     Br     0.052900000000     0.900260000000     0.183460000000    -0.203986   
Br36     Br     0.040490000000     0.605870000000     0.317080000000    -0.204759   
Br37     Br     0.447980000000     0.754370000000     0.926290000000    -0.229965   
Br38     Br     0.112340000000     0.683300000000     0.970290000000    -0.214797   
Br39     Br     0.217140000000     0.913380000000     0.947730000000    -0.209186   
Br40     Br     0.242490000000     0.592370000000     0.566320000000    -0.242274   
Br41     Br     0.299170000000     0.943540000000     0.912680000000    -0.210806   
Br42     Br     0.341740000000     0.986970000000     0.663060000000    -0.231186   
Br43     Br     0.007990000000     0.685450000000     0.847310000000    -0.206982   
Br44     Br     0.466130000000     0.705690000000     0.669480000000    -0.227155   
Br45     Br     0.117910000000     0.925160000000     0.735760000000    -0.219232   
Br46     Br     0.425930000000     0.936080000000     0.744540000000    -0.230355   
Br47     Br     0.052900000000     0.900260000000     0.683460000000    -0.20336    
Br48     Br     0.040490000000     0.605870000000     0.817080000000    -0.203984   
Br49     Br     0.947980000000     0.254370000000     0.426290000000    -0.231024   
Br50     Br     0.612340000000     0.183300000000     0.470290000000    -0.226018   
Br51     Br     0.717140000000     0.413380000000     0.447730000000    -0.212094   
Br52     Br     0.742490000000     0.092370000000     0.066320000000    -0.243061   
Br53     Br     0.799170000000     0.443540000000     0.412680000000    -0.213957   
Br54     Br     0.841740000000     0.486970000000     0.163060000000    -0.233386   
Br55     Br     0.507990000000     0.185450000000     0.347310000000    -0.207523   
Br56     Br     0.966130000000     0.205690000000     0.169480000000    -0.227379   
Br57     Br     0.617910000000     0.425160000000     0.235760000000    -0.219487   
Br58     Br     0.925930000000     0.436080000000     0.244540000000    -0.230688   
Br59     Br     0.552900000000     0.400260000000     0.183460000000    -0.204174   
Br60     Br     0.540500000000     0.105870000000     0.317080000000    -0.204999   
Br61     Br     0.947980000000     0.254370000000     0.926290000000    -0.22993    
Br62     Br     0.612340000000     0.183300000000     0.970290000000    -0.214902   
Br63     Br     0.717140000000     0.413380000000     0.947730000000    -0.209655   
Br64     Br     0.742490000000     0.092370000000     0.566320000000    -0.242407   
Br65     Br     0.799170000000     0.443540000000     0.912680000000    -0.211042   
Br66     Br     0.841740000000     0.486970000000     0.663060000000    -0.233059   
Br67     Br     0.507990000000     0.185450000000     0.847310000000    -0.206991   
Br68     Br     0.966130000000     0.205690000000     0.669480000000    -0.227086   
Br69     Br     0.617910000000     0.425160000000     0.735760000000    -0.21931    
Br70     Br     0.925930000000     0.436080000000     0.744540000000    -0.230492   
Br71     Br     0.552900000000     0.400260000000     0.683460000000    -0.203548   
Br72     Br     0.540500000000     0.105870000000     0.817080000000    -0.204227   
Br73     Br     0.947980000000     0.754370000000     0.426290000000    -0.230989   
Br74     Br     0.612340000000     0.683300000000     0.470290000000    -0.22592    
Br75     Br     0.717140000000     0.913380000000     0.447730000000    -0.211617   
Br76     Br     0.742490000000     0.592370000000     0.066320000000    -0.242928   
Br77     Br     0.799170000000     0.943540000000     0.412680000000    -0.21371    
Br78     Br     0.841740000000     0.986970000000     0.163060000000    -0.231505   
Br79     Br     0.507990000000     0.685450000000     0.347310000000    -0.207465   
Br80     Br     0.966130000000     0.705690000000     0.169480000000    -0.227332   
Br81     Br     0.617910000000     0.925160000000     0.235760000000    -0.219409   
Br82     Br     0.925930000000     0.936080000000     0.244540000000    -0.230515   
Br83     Br     0.552900000000     0.900260000000     0.183460000000    -0.203963   
Br84     Br     0.540500000000     0.605870000000     0.317080000000    -0.20472    
Br85     Br     0.947980000000     0.754370000000     0.926290000000    -0.229895   
Br86     Br     0.612340000000     0.683300000000     0.970290000000    -0.214792   
Br87     Br     0.717140000000     0.913380000000     0.947730000000    -0.209183   
Br88     Br     0.742490000000     0.592370000000     0.566320000000    -0.242273   
Br89     Br     0.799170000000     0.943540000000     0.912680000000    -0.2108     
Br90     Br     0.841740000000     0.986970000000     0.663060000000    -0.231174   
Br91     Br     0.507990000000     0.685450000000     0.847310000000    -0.206932   
Br92     Br     0.966130000000     0.705690000000     0.669480000000    -0.227039   
Br93     Br     0.617910000000     0.925160000000     0.735760000000    -0.219233   
Br94     Br     0.925930000000     0.936080000000     0.744540000000    -0.230319   
Br95     Br     0.552900000000     0.900260000000     0.683460000000    -0.203337   
Br96     Br     0.540500000000     0.605870000000     0.817080000000    -0.203945   
C1       C      0.529120000000     0.054630000000     0.252320000000     0.408106   
C2       C      0.015360000000     0.431640000000     0.242670000000     0.424649   
C3       C      0.459320000000     0.000280000000     0.233480000000     0.41666    
C4       C      0.084750000000     0.485650000000     0.262240000000     0.41841    
C5       C      0.533080000000     0.184940000000     0.256050000000     0.410482   
C6       C      0.531270000000     0.308790000000     0.258780000000     0.40374    
C7       C      0.523710000000     0.248250000000     0.195600000000     0.413028   
C8       C      0.540830000000     0.244920000000     0.319270000000     0.415702   
C9       C      0.278230000000     0.019240000000     0.188910000000     0.414167   
C10      C      0.265820000000     0.506630000000     0.312420000000     0.400564   
C11      C      0.336730000000     0.016010000000     0.256100000000     0.403999   
C12      C      0.207320000000     0.509300000000     0.245260000000     0.401373   
C13      C      0.274720000000     0.064410000000     0.006220000000     0.411484   
C14      C      0.259460000000     0.441110000000     0.502350000000     0.419905   
C15      C      0.265810000000     0.001130000000     0.066120000000     0.402594   
C16      C      0.268210000000     0.503820000000     0.441440000000     0.418486   
C17      C      0.016160000000     0.258180000000     0.068670000000     0.397933   
C18      C      0.544390000000     0.244020000000     0.447440000000     0.411379   
C19      C      0.089280000000     0.229560000000     0.022080000000     0.413911   
C20      C      0.471370000000     0.273240000000     0.492940000000     0.419723   
C21      C      0.287800000000     0.191550000000     0.011230000000     0.388354   
C22      C      0.272860000000     0.314570000000     0.000230000000     0.378969   
C23      C      0.215300000000     0.245600000000     0.010790000000     0.387724   
C24      C      0.344550000000     0.260040000000     0.000890000000     0.378999   
C25      C      0.397120000000     0.276850000000     0.024360000000    -0.02059    
C26      C      0.395520000000     0.250340000000     0.471250000000    -0.0471727  
C27      C      0.422710000000     0.299890000000     0.011530000000    -0.0162102  
C28      C      0.421650000000     0.273150000000     0.459620000000     0.116441   
C29      C      0.164110000000     0.255280000000     0.040250000000    -0.0145802  
C30      C      0.163010000000     0.225930000000     0.488760000000    -0.0445084  
C31      C      0.139080000000     0.232220000000     0.053530000000    -0.0073612  
C32      C      0.138850000000     0.202460000000     0.503340000000     0.110495   
C33      C      0.291930000000     0.365930000000     0.518110000000    -0.0134834  
C34      C      0.254060000000     0.361890000000     0.471630000000    -0.0452977  
C35      C      0.272140000000     0.393210000000     0.030570000000    -0.00533725 
C36      C      0.234750000000     0.390600000000     0.983770000000     0.121629   
C37      C      0.312500000000     0.142220000000     0.992570000000     0.00453541 
C38      C      0.278090000000     0.143280000000     0.041250000000    -0.0447364  
C39      C      0.296040000000     0.111710000000     0.482340000000    -0.0101851  
C40      C      0.258450000000     0.115100000000     0.529550000000     0.115336   
C41      C      0.241150000000     0.025290000000     0.361760000000    -0.0128768  
C42      C      0.271880000000     0.474580000000     0.360120000000    -0.0445543  
C43      C      0.256170000000     0.032650000000     0.393740000000    -0.00904562 
C44      C      0.289220000000     0.482760000000     0.390980000000     0.115612   
C45      C      0.239640000000     0.015830000000     0.116400000000    -0.014028   
C46      C      0.291670000000     0.484280000000     0.115710000000    -0.0453332  
C47      C      0.255530000000     0.038840000000     0.139590000000    -0.010422   
C48      C      0.307170000000     0.507180000000     0.138710000000     0.116494   
C49      C      0.075980000000     0.258800000000     0.399690000000    -0.0111834  
C50      C      0.039640000000     0.212100000000     0.399550000000    -0.0408531  
C51      C      0.563820000000     0.267620000000     0.366660000000    -0.0105739  
C52      C      0.522750000000     0.222870000000     0.369600000000     0.112647   
C53      C      0.025390000000     0.285890000000     0.118790000000    -0.015001   
C54      C      0.485210000000     0.241960000000     0.116240000000    -0.0444804  
C55      C      0.042780000000     0.270180000000     0.146260000000    -0.00742016 
C56      C      0.500350000000     0.227330000000     0.145820000000     0.112104   
C57      C      0.152600000000     0.028550000000     0.261070000000    -0.013774   
C58      C      0.158380000000     0.479750000000     0.228660000000    -0.0466734  
C59      C      0.132550000000     0.010110000000     0.285480000000    -0.0135075  
C60      C      0.139310000000     0.461770000000     0.253510000000     0.117635   
C61      C      0.389880000000     0.042700000000     0.245940000000    -0.0126186  
C62      C      0.387960000000     0.488120000000     0.266960000000    -0.0440607  
C63      C      0.411520000000     0.031170000000     0.218280000000    -0.0139586  
C64      C      0.404900000000     0.476350000000     0.237530000000     0.11709    
C65      C      0.010120000000     0.358330000000     0.280130000000    -0.0126478  
C66      C      0.050380000000     0.357650000000     0.235050000000    -0.0474661  
C67      C      0.490320000000     0.383280000000     0.262900000000    -0.00910314 
C68      C      0.527940000000     0.379930000000     0.216920000000     0.117841   
C69      C      0.061750000000     0.135860000000     0.243500000000    -0.0120725  
C70      C      0.004570000000     0.135820000000     0.267430000000    -0.0422268  
C71      C      0.551530000000     0.103630000000     0.231190000000    -0.00319488 
C72      C      0.514110000000     0.103280000000     0.279140000000     0.117011   
C73      C      0.529120000000     0.054630000000     0.752320000000     0.408039   
C74      C      0.015360000000     0.431640000000     0.742670000000     0.424572   
C75      C      0.459320000000     0.000280000000     0.733480000000     0.416596   
C76      C      0.084750000000     0.485650000000     0.762230000000     0.418355   
C77      C      0.533080000000     0.184940000000     0.756050000000     0.410461   
C78      C      0.531270000000     0.308790000000     0.758780000000     0.403731   
C79      C      0.523710000000     0.248250000000     0.695600000000     0.413096   
C80      C      0.540830000000     0.244920000000     0.819270000000     0.415715   
C81      C      0.278230000000     0.019240000000     0.688910000000     0.414354   
C82      C      0.265820000000     0.506630000000     0.812430000000     0.400397   
C83      C      0.336730000000     0.016010000000     0.756100000000     0.403993   
C84      C      0.207320000000     0.509300000000     0.745270000000     0.401376   
C85      C      0.274720000000     0.064410000000     0.506220000000     0.413271   
C86      C      0.259460000000     0.441110000000     0.002350000000     0.406547   
C87      C      0.265810000000     0.001130000000     0.566120000000     0.403316   
C88      C      0.268210000000     0.503820000000     0.941440000000     0.416789   
C89      C      0.016160000000     0.258180000000     0.568670000000     0.399094   
C90      C      0.544390000000     0.244020000000     0.947440000000     0.409364   
C91      C      0.089280000000     0.229560000000     0.522080000000     0.416537   
C92      C      0.471370000000     0.273240000000     0.992940000000     0.418606   
C93      C      0.287800000000     0.191550000000     0.511230000000     0.399631   
C94      C      0.272860000000     0.314570000000     0.500230000000     0.398761   
C95      C      0.215300000000     0.245600000000     0.510790000000     0.399077   
C96      C      0.344550000000     0.260040000000     0.500890000000     0.398594   
C97      C      0.397120000000     0.276850000000     0.524360000000    -0.0138391  
C98      C      0.395520000000     0.250340000000     0.971250000000    -0.0474661  
C99      C      0.422710000000     0.299890000000     0.511530000000    -0.0103946  
C100     C      0.421650000000     0.273150000000     0.959620000000     0.117029   
C101     C      0.164110000000     0.255280000000     0.540250000000    -0.0148116  
C102     C      0.163010000000     0.225930000000     0.988760000000    -0.0273751  
C103     C      0.139080000000     0.232220000000     0.553530000000    -0.00634191 
C104     C      0.138850000000     0.202460000000     0.003330000000     0.0950408  
C105     C      0.291930000000     0.365930000000     0.018110000000    -0.0216186  
C106     C      0.254060000000     0.361890000000     0.971630000000    -0.0465934  
C107     C      0.272140000000     0.393210000000     0.530570000000    -0.00634606 
C108     C      0.234750000000     0.390600000000     0.483770000000     0.115413   
C109     C      0.312500000000     0.142220000000     0.492570000000    -0.0127944  
C110     C      0.278090000000     0.143280000000     0.541250000000    -0.0442027  
C111     C      0.296040000000     0.111710000000     0.982340000000    -0.00711441 
C112     C      0.258450000000     0.115100000000     0.029550000000     0.114882   
C113     C      0.241150000000     0.025290000000     0.861760000000    -0.0128182  
C114     C      0.271880000000     0.474580000000     0.860120000000    -0.0444722  
C115     C      0.256170000000     0.032650000000     0.893740000000    -0.00919933 
C116     C      0.289220000000     0.482760000000     0.890980000000     0.115314   
C117     C      0.239640000000     0.015830000000     0.616400000000    -0.0140508  
C118     C      0.291670000000     0.484280000000     0.615710000000    -0.0453168  
C119     C      0.255530000000     0.038840000000     0.639590000000    -0.0104376  
C120     C      0.307170000000     0.507180000000     0.638710000000     0.116452   
C121     C      0.075980000000     0.258800000000     0.899690000000    -0.0113393  
C122     C      0.039640000000     0.212100000000     0.899550000000    -0.04108    
C123     C      0.563820000000     0.267620000000     0.866660000000    -0.0105404  
C124     C      0.522750000000     0.222870000000     0.869600000000     0.112697   
C125     C      0.025390000000     0.285890000000     0.618790000000    -0.0149996  
C126     C      0.485210000000     0.241960000000     0.616240000000    -0.0444633  
C127     C      0.042780000000     0.270180000000     0.646260000000    -0.00745365 
C128     C      0.500350000000     0.227330000000     0.645820000000     0.112064   
C129     C      0.152600000000     0.028550000000     0.761070000000    -0.0137929  
C130     C      0.158380000000     0.479750000000     0.728660000000    -0.0467146  
C131     C      0.132550000000     0.010110000000     0.785480000000    -0.013555   
C132     C      0.139310000000     0.461770000000     0.753510000000     0.117619   
C133     C      0.389880000000     0.042700000000     0.745930000000    -0.0126594  
C134     C      0.387960000000     0.488120000000     0.766960000000    -0.0441217  
C135     C      0.411520000000     0.031170000000     0.718280000000    -0.0139725  
C136     C      0.404900000000     0.476350000000     0.737530000000     0.117098   
C137     C      0.010120000000     0.358330000000     0.780130000000    -0.0127323  
C138     C      0.050380000000     0.357650000000     0.735050000000    -0.0474403  
C139     C      0.490320000000     0.383280000000     0.762900000000    -0.00909808 
C140     C      0.527940000000     0.379930000000     0.716910000000     0.117738   
C141     C      0.061750000000     0.135860000000     0.743500000000    -0.0120814  
C142     C      0.004570000000     0.135820000000     0.767430000000    -0.0421735  
C143     C      0.551530000000     0.103630000000     0.731190000000    -0.00323069 
C144     C      0.514110000000     0.103280000000     0.779140000000     0.116894   
C145     C      0.529120000000     0.554630000000     0.252320000000     0.407823   
C146     C      0.015360000000     0.931640000000     0.242670000000     0.424853   
C147     C      0.459320000000     0.500280000000     0.233480000000     0.4184     
C148     C      0.084750000000     0.985650000000     0.262240000000     0.418676   
C149     C      0.533080000000     0.684940000000     0.256050000000     0.410623   
C150     C      0.531270000000     0.808790000000     0.258780000000     0.403716   
C151     C      0.523710000000     0.748250000000     0.195600000000     0.413028   
C152     C      0.540830000000     0.744920000000     0.319270000000     0.41568    
C153     C      0.278230000000     0.519240000000     0.188910000000     0.416448   
C154     C      0.265820000000     0.006630000000     0.312420000000     0.398653   
C155     C      0.336730000000     0.516010000000     0.256100000000     0.405938   
C156     C      0.207320000000     0.009300000000     0.245260000000     0.399723   
C157     C      0.274720000000     0.564410000000     0.006220000000     0.4114     
C158     C      0.259460000000     0.941110000000     0.502350000000     0.419864   
C159     C      0.265810000000     0.501130000000     0.066120000000     0.40453    
C160     C      0.268210000000     0.003820000000     0.441440000000     0.416498   
C161     C      0.016160000000     0.758180000000     0.068670000000     0.397716   
C162     C      0.544390000000     0.744020000000     0.447440000000     0.411368   
C163     C      0.089280000000     0.729560000000     0.022080000000     0.413899   
C164     C      0.471370000000     0.773240000000     0.492940000000     0.419713   
C165     C      0.287800000000     0.691550000000     0.011230000000     0.388254   
C166     C      0.272860000000     0.814580000000     0.000230000000     0.378886   
C167     C      0.215300000000     0.745600000000     0.010790000000     0.387764   
C168     C      0.344550000000     0.760040000000     0.000890000000     0.37898    
C169     C      0.397120000000     0.776850000000     0.024360000000    -0.0205942  
C170     C      0.395520000000     0.750340000000     0.471250000000    -0.0471811  
C171     C      0.422710000000     0.799890000000     0.011530000000    -0.0162191  
C172     C      0.421650000000     0.773150000000     0.459620000000     0.116439   
C173     C      0.164110000000     0.755280000000     0.040250000000    -0.0146395  
C174     C      0.163010000000     0.725930000000     0.488760000000    -0.0445166  
C175     C      0.139080000000     0.732220000000     0.053530000000    -0.0073434  
C176     C      0.138850000000     0.702470000000     0.503340000000     0.1105     
C177     C      0.291930000000     0.865930000000     0.518110000000    -0.013477   
C178     C      0.254060000000     0.861900000000     0.471630000000    -0.0452988  
C179     C      0.272140000000     0.893210000000     0.030570000000    -0.00533516 
C180     C      0.234750000000     0.890600000000     0.983770000000     0.121591   
C181     C      0.312500000000     0.642220000000     0.992570000000     0.00457213 
C182     C      0.278090000000     0.643280000000     0.041250000000    -0.0447505  
C183     C      0.296040000000     0.611720000000     0.482340000000    -0.0102031  
C184     C      0.258450000000     0.615100000000     0.529550000000     0.115345   
C185     C      0.241150000000     0.525290000000     0.361760000000    -0.0127479  
C186     C      0.271880000000     0.974580000000     0.360120000000    -0.0435815  
C187     C      0.256170000000     0.532650000000     0.393740000000    -0.00887319 
C188     C      0.289220000000     0.982760000000     0.390980000000     0.116393   
C189     C      0.239640000000     0.515830000000     0.116400000000    -0.0121247  
C190     C      0.291670000000     0.984280000000     0.115710000000    -0.0425337  
C191     C      0.255530000000     0.538840000000     0.139590000000    -0.010669   
C192     C      0.307170000000     0.007180000000     0.138710000000     0.113805   
C193     C      0.075980000000     0.758800000000     0.399690000000    -0.0111944  
C194     C      0.039640000000     0.712100000000     0.399550000000    -0.040865   
C195     C      0.563820000000     0.767610000000     0.366660000000    -0.0104754  
C196     C      0.522750000000     0.722870000000     0.369600000000     0.112642   
C197     C      0.025390000000     0.785890000000     0.118790000000    -0.0150714  
C198     C      0.485210000000     0.741960000000     0.116240000000    -0.0444939  
C199     C      0.042780000000     0.770180000000     0.146260000000    -0.00737193 
C200     C      0.500350000000     0.727330000000     0.145820000000     0.1121     
C201     C      0.152600000000     0.528550000000     0.261070000000    -0.0139228  
C202     C      0.158380000000     0.979750000000     0.228660000000    -0.0454808  
C203     C      0.132550000000     0.510100000000     0.285480000000    -0.0121906  
C204     C      0.139310000000     0.961760000000     0.253510000000     0.117452   
C205     C      0.389880000000     0.542700000000     0.245940000000    -0.0124317  
C206     C      0.387960000000     0.988120000000     0.266960000000    -0.0431475  
C207     C      0.411520000000     0.531170000000     0.218280000000    -0.0138326  
C208     C      0.404900000000     0.976350000000     0.237530000000     0.117887   
C209     C      0.010120000000     0.858330000000     0.280130000000    -0.0126621  
C210     C      0.050380000000     0.857650000000     0.235050000000    -0.0474335  
C211     C      0.490320000000     0.883280000000     0.262900000000    -0.00909282 
C212     C      0.527940000000     0.879930000000     0.216920000000     0.117816   
C213     C      0.061750000000     0.635860000000     0.243500000000    -0.0120511  
C214     C      0.004570000000     0.635820000000     0.267430000000    -0.0422153  
C215     C      0.551530000000     0.603630000000     0.231190000000    -0.00323515 
C216     C      0.514110000000     0.603280000000     0.279140000000     0.116978   
C217     C      0.529120000000     0.554630000000     0.752320000000     0.407755   
C218     C      0.015360000000     0.931640000000     0.742670000000     0.424777   
C219     C      0.459320000000     0.500280000000     0.733480000000     0.418342   
C220     C      0.084750000000     0.985650000000     0.762230000000     0.418621   
C221     C      0.533080000000     0.684940000000     0.756050000000     0.410602   
C222     C      0.531270000000     0.808790000000     0.758780000000     0.403706   
C223     C      0.523710000000     0.748250000000     0.695600000000     0.413095   
C224     C      0.540830000000     0.744920000000     0.819270000000     0.415693   
C225     C      0.278230000000     0.519240000000     0.688910000000     0.416645   
C226     C      0.265820000000     0.006630000000     0.812430000000     0.39848    
C227     C      0.336730000000     0.516010000000     0.756100000000     0.405939   
C228     C      0.207320000000     0.009300000000     0.745270000000     0.399718   
C229     C      0.274720000000     0.564410000000     0.506220000000     0.413192   
C230     C      0.259460000000     0.941110000000     0.002350000000     0.406532   
C231     C      0.265810000000     0.501130000000     0.566120000000     0.405267   
C232     C      0.268210000000     0.003820000000     0.941440000000     0.414802   
C233     C      0.016160000000     0.758180000000     0.568670000000     0.398876   
C234     C      0.544390000000     0.744020000000     0.947440000000     0.409352   
C235     C      0.089280000000     0.729560000000     0.522080000000     0.416526   
C236     C      0.471370000000     0.773240000000     0.992940000000     0.418595   
C237     C      0.287800000000     0.691550000000     0.511230000000     0.399542   
C238     C      0.272860000000     0.814580000000     0.500230000000     0.398672   
C239     C      0.215300000000     0.745600000000     0.510790000000     0.399124   
C240     C      0.344550000000     0.760040000000     0.500890000000     0.398581   
C241     C      0.397120000000     0.776850000000     0.524360000000    -0.013841   
C242     C      0.395520000000     0.750340000000     0.971250000000    -0.047475   
C243     C      0.422710000000     0.799890000000     0.511530000000    -0.010403   
C244     C      0.421650000000     0.773150000000     0.959620000000     0.117027   
C245     C      0.164110000000     0.755280000000     0.540250000000    -0.0148716  
C246     C      0.163010000000     0.725930000000     0.988760000000    -0.0273631  
C247     C      0.139080000000     0.732220000000     0.553530000000    -0.00632348 
C248     C      0.138850000000     0.702470000000     0.003330000000     0.0950289  
C249     C      0.291930000000     0.865930000000     0.018110000000    -0.0216081  
C250     C      0.254060000000     0.861900000000     0.971630000000    -0.0465945  
C251     C      0.272140000000     0.893210000000     0.530570000000    -0.00634425 
C252     C      0.234750000000     0.890600000000     0.483770000000     0.115382   
C253     C      0.312500000000     0.642220000000     0.492570000000    -0.0127885  
C254     C      0.278090000000     0.643280000000     0.541250000000    -0.0442164  
C255     C      0.296040000000     0.611720000000     0.982340000000    -0.00712977 
C256     C      0.258450000000     0.615100000000     0.029550000000     0.114889   
C257     C      0.241150000000     0.525290000000     0.861760000000    -0.0126887  
C258     C      0.271880000000     0.974580000000     0.860120000000    -0.0434983  
C259     C      0.256170000000     0.532650000000     0.893740000000    -0.00902678 
C260     C      0.289220000000     0.982760000000     0.890980000000     0.116096   
C261     C      0.239640000000     0.515830000000     0.616400000000    -0.0121385  
C262     C      0.291670000000     0.984280000000     0.615710000000    -0.0425046  
C263     C      0.255530000000     0.538840000000     0.639590000000    -0.0106858  
C264     C      0.307170000000     0.007180000000     0.638710000000     0.113749   
C265     C      0.075980000000     0.758800000000     0.899690000000    -0.01135    
C266     C      0.039640000000     0.712100000000     0.899550000000    -0.0410922  
C267     C      0.563820000000     0.767610000000     0.866660000000    -0.010442   
C268     C      0.522750000000     0.722870000000     0.869600000000     0.112693   
C269     C      0.025390000000     0.785890000000     0.618790000000    -0.0150701  
C270     C      0.485210000000     0.741960000000     0.616240000000    -0.0444769  
C271     C      0.042780000000     0.770180000000     0.646260000000    -0.00740544 
C272     C      0.500350000000     0.727330000000     0.645820000000     0.11206    
C273     C      0.152600000000     0.528550000000     0.761070000000    -0.0139419  
C274     C      0.158380000000     0.979750000000     0.728660000000    -0.0455191  
C275     C      0.132550000000     0.510100000000     0.785480000000    -0.0122335  
C276     C      0.139310000000     0.961760000000     0.753510000000     0.117436   
C277     C      0.389880000000     0.542700000000     0.745930000000    -0.0124718  
C278     C      0.387960000000     0.988120000000     0.766960000000    -0.0432073  
C279     C      0.411520000000     0.531170000000     0.718280000000    -0.0138463  
C280     C      0.404900000000     0.976350000000     0.737530000000     0.117897   
C281     C      0.010120000000     0.858330000000     0.780130000000    -0.0127466  
C282     C      0.050380000000     0.857650000000     0.735050000000    -0.0474078  
C283     C      0.490320000000     0.883280000000     0.762900000000    -0.00908772 
C284     C      0.527940000000     0.879930000000     0.716910000000     0.117713   
C285     C      0.061750000000     0.635860000000     0.743500000000    -0.01206    
C286     C      0.004570000000     0.635820000000     0.767430000000    -0.0421619  
C287     C      0.551530000000     0.603630000000     0.731190000000    -0.00327125 
C288     C      0.514110000000     0.603280000000     0.779140000000     0.116861   
C289     C      0.029120000000     0.054630000000     0.252320000000     0.408087   
C290     C      0.515370000000     0.431640000000     0.242670000000     0.424618   
C291     C      0.959320000000     0.000280000000     0.233480000000     0.416646   
C292     C      0.584750000000     0.485650000000     0.262240000000     0.418413   
C293     C      0.033080000000     0.184940000000     0.256050000000     0.410465   
C294     C      0.031270000000     0.308790000000     0.258780000000     0.403725   
C295     C      0.023710000000     0.248250000000     0.195600000000     0.412876   
C296     C      0.040830000000     0.244920000000     0.319270000000     0.415699   
C297     C      0.778230000000     0.019240000000     0.188910000000     0.41416    
C298     C      0.765820000000     0.506630000000     0.312420000000     0.40056    
C299     C      0.836730000000     0.016010000000     0.256100000000     0.403994   
C300     C      0.707320000000     0.509300000000     0.245260000000     0.401457   
C301     C      0.774720000000     0.064410000000     0.006220000000     0.411483   
C302     C      0.759460000000     0.441110000000     0.502350000000     0.419904   
C303     C      0.765810000000     0.001130000000     0.066120000000     0.402596   
C304     C      0.768210000000     0.503820000000     0.441440000000     0.418486   
C305     C      0.516160000000     0.258180000000     0.068670000000     0.397943   
C306     C      0.044390000000     0.244020000000     0.447440000000     0.411367   
C307     C      0.589280000000     0.229560000000     0.022080000000     0.413916   
C308     C      0.971370000000     0.273240000000     0.492940000000     0.41971    
C309     C      0.787800000000     0.191550000000     0.011230000000     0.388349   
C310     C      0.772860000000     0.314570000000     0.000230000000     0.37893    
C311     C      0.715300000000     0.245600000000     0.010790000000     0.387721   
C312     C      0.844550000000     0.260040000000     0.000890000000     0.379077   
C313     C      0.897120000000     0.276850000000     0.024360000000    -0.0205882  
C314     C      0.895520000000     0.250340000000     0.471250000000    -0.0471666  
C315     C      0.922710000000     0.299890000000     0.011530000000    -0.0162111  
C316     C      0.921650000000     0.273150000000     0.459620000000     0.116435   
C317     C      0.664110000000     0.255280000000     0.040250000000    -0.0145807  
C318     C      0.663010000000     0.225930000000     0.488760000000    -0.0445091  
C319     C      0.639080000000     0.232220000000     0.053530000000    -0.00736117 
C320     C      0.638850000000     0.202460000000     0.503340000000     0.110495   
C321     C      0.791930000000     0.365930000000     0.518110000000    -0.0134869  
C322     C      0.754060000000     0.361890000000     0.471630000000    -0.0453002  
C323     C      0.772140000000     0.393210000000     0.030570000000    -0.00533608 
C324     C      0.734750000000     0.390600000000     0.983770000000     0.12163    
C325     C      0.812500000000     0.142220000000     0.992570000000     0.00453337 
C326     C      0.778090000000     0.143280000000     0.041250000000    -0.0447371  
C327     C      0.796040000000     0.111710000000     0.482340000000    -0.0101847  
C328     C      0.758450000000     0.115100000000     0.529550000000     0.115337   
C329     C      0.741150000000     0.025290000000     0.361760000000    -0.0128771  
C330     C      0.771880000000     0.474580000000     0.360120000000    -0.0445547  
C331     C      0.756170000000     0.032650000000     0.393740000000    -0.0090461  
C332     C      0.789220000000     0.482760000000     0.390980000000     0.115612   
C333     C      0.739650000000     0.015830000000     0.116400000000    -0.0139082  
C334     C      0.791670000000     0.484280000000     0.115710000000    -0.0453299  
C335     C      0.755530000000     0.038840000000     0.139590000000    -0.0104703  
C336     C      0.807170000000     0.507180000000     0.138710000000     0.11649    
C337     C      0.575980000000     0.258800000000     0.399690000000    -0.0111807  
C338     C      0.539640000000     0.212100000000     0.399550000000    -0.0408488  
C339     C      0.063820000000     0.267620000000     0.366660000000    -0.0105726  
C340     C      0.022750000000     0.222870000000     0.369600000000     0.112652   
C341     C      0.525390000000     0.285890000000     0.118790000000    -0.0150295  
C342     C      0.985210000000     0.241960000000     0.116240000000    -0.0442935  
C343     C      0.542780000000     0.270180000000     0.146260000000    -0.00735006 
C344     C      0.000350000000     0.227330000000     0.145820000000     0.111958   
C345     C      0.652600000000     0.028550000000     0.261070000000    -0.0137722  
C346     C      0.658380000000     0.479750000000     0.228660000000    -0.0466665  
C347     C      0.632550000000     0.010110000000     0.285480000000    -0.0135084  
C348     C      0.639310000000     0.461770000000     0.253510000000     0.117634   
C349     C      0.889880000000     0.042700000000     0.245940000000    -0.0126194  
C350     C      0.887960000000     0.488120000000     0.266960000000    -0.0440627  
C351     C      0.911520000000     0.031170000000     0.218280000000    -0.013959   
C352     C      0.904900000000     0.476350000000     0.237530000000     0.117089   
C353     C      0.510120000000     0.358330000000     0.280130000000    -0.0124041  
C354     C      0.550390000000     0.357650000000     0.235050000000    -0.0475377  
C355     C      0.990320000000     0.383280000000     0.262900000000    -0.00888661 
C356     C      0.027940000000     0.379930000000     0.216920000000     0.117837   
C357     C      0.561750000000     0.135860000000     0.243500000000    -0.0120644  
C358     C      0.504570000000     0.135820000000     0.267430000000    -0.0419959  
C359     C      0.051530000000     0.103630000000     0.231190000000    -0.00319086 
C360     C      0.014110000000     0.103280000000     0.279140000000     0.116983   
C361     C      0.029120000000     0.054630000000     0.752320000000     0.408021   
C362     C      0.515370000000     0.431640000000     0.742670000000     0.424541   
C363     C      0.959320000000     0.000280000000     0.733480000000     0.416582   
C364     C      0.584750000000     0.485650000000     0.762230000000     0.418358   
C365     C      0.033080000000     0.184940000000     0.756050000000     0.410444   
C366     C      0.031270000000     0.308790000000     0.758780000000     0.403715   
C367     C      0.023710000000     0.248250000000     0.695600000000     0.412944   
C368     C      0.040830000000     0.244920000000     0.819270000000     0.415712   
C369     C      0.778230000000     0.019240000000     0.688910000000     0.414348   
C370     C      0.765820000000     0.506630000000     0.812430000000     0.400393   
C371     C      0.836730000000     0.016010000000     0.756100000000     0.403988   
C372     C      0.707320000000     0.509300000000     0.745270000000     0.40146    
C373     C      0.774720000000     0.064410000000     0.506220000000     0.41327    
C374     C      0.759460000000     0.441110000000     0.002350000000     0.406546   
C375     C      0.765810000000     0.001130000000     0.566120000000     0.403318   
C376     C      0.768210000000     0.503820000000     0.941440000000     0.416788   
C377     C      0.516160000000     0.258180000000     0.568670000000     0.399105   
C378     C      0.044390000000     0.244020000000     0.947440000000     0.409352   
C379     C      0.589280000000     0.229560000000     0.522080000000     0.416542   
C380     C      0.971370000000     0.273240000000     0.992940000000     0.418593   
C381     C      0.787800000000     0.191550000000     0.511230000000     0.399626   
C382     C      0.772860000000     0.314570000000     0.500230000000     0.39872    
C383     C      0.715300000000     0.245600000000     0.510790000000     0.399074   
C384     C      0.844550000000     0.260040000000     0.500890000000     0.398676   
C385     C      0.897120000000     0.276850000000     0.524360000000    -0.0138375  
C386     C      0.895520000000     0.250340000000     0.971250000000    -0.0474603  
C387     C      0.922710000000     0.299890000000     0.511530000000    -0.0103961  
C388     C      0.921650000000     0.273150000000     0.959620000000     0.117023   
C389     C      0.664110000000     0.255280000000     0.540250000000    -0.0148121  
C390     C      0.663010000000     0.225930000000     0.988760000000    -0.0273754  
C391     C      0.639080000000     0.232220000000     0.553530000000    -0.00634186 
C392     C      0.638850000000     0.202460000000     0.003330000000     0.0950398  
C393     C      0.791930000000     0.365930000000     0.018110000000    -0.0216219  
C394     C      0.754060000000     0.361890000000     0.971630000000    -0.0465959  
C395     C      0.772140000000     0.393210000000     0.530570000000    -0.00634484 
C396     C      0.734750000000     0.390600000000     0.483770000000     0.115414   
C397     C      0.812500000000     0.142220000000     0.492570000000    -0.0127959  
C398     C      0.778090000000     0.143280000000     0.541250000000    -0.0442034  
C399     C      0.796040000000     0.111710000000     0.982340000000    -0.00711396 
C400     C      0.758450000000     0.115100000000     0.029550000000     0.114882   
C401     C      0.741150000000     0.025290000000     0.861760000000    -0.0128184  
C402     C      0.771880000000     0.474580000000     0.860120000000    -0.0444725  
C403     C      0.756170000000     0.032650000000     0.893740000000    -0.0091998  
C404     C      0.789220000000     0.482760000000     0.890980000000     0.115314   
C405     C      0.739650000000     0.015830000000     0.616400000000    -0.013931   
C406     C      0.791670000000     0.484280000000     0.615710000000    -0.0453135  
C407     C      0.755530000000     0.038840000000     0.639590000000    -0.010486   
C408     C      0.807170000000     0.507180000000     0.638710000000     0.116448   
C409     C      0.575980000000     0.258800000000     0.899690000000    -0.0113366  
C410     C      0.539640000000     0.212100000000     0.899550000000    -0.0410757  
C411     C      0.063820000000     0.267620000000     0.866660000000    -0.010539   
C412     C      0.022750000000     0.222870000000     0.869600000000     0.112703   
C413     C      0.525390000000     0.285890000000     0.618790000000    -0.0150281  
C414     C      0.985210000000     0.241960000000     0.616240000000    -0.0442764  
C415     C      0.542780000000     0.270180000000     0.646260000000    -0.00738355 
C416     C      0.000350000000     0.227330000000     0.645820000000     0.111919   
C417     C      0.652600000000     0.028550000000     0.761070000000    -0.013791   
C418     C      0.658380000000     0.479750000000     0.728660000000    -0.0467077  
C419     C      0.632550000000     0.010110000000     0.785480000000    -0.0135559  
C420     C      0.639310000000     0.461770000000     0.753510000000     0.117618   
C421     C      0.889880000000     0.042700000000     0.745930000000    -0.0126602  
C422     C      0.887960000000     0.488120000000     0.766960000000    -0.0441237  
C423     C      0.911520000000     0.031170000000     0.718280000000    -0.0139729  
C424     C      0.904900000000     0.476350000000     0.737530000000     0.117097   
C425     C      0.510120000000     0.358330000000     0.780130000000    -0.0124889  
C426     C      0.550390000000     0.357650000000     0.735050000000    -0.047512   
C427     C      0.990320000000     0.383280000000     0.762900000000    -0.00888186 
C428     C      0.027940000000     0.379930000000     0.716910000000     0.117735   
C429     C      0.561750000000     0.135860000000     0.743500000000    -0.0120733  
C430     C      0.504570000000     0.135820000000     0.767430000000    -0.0419429  
C431     C      0.051530000000     0.103630000000     0.731190000000    -0.00322667 
C432     C      0.014110000000     0.103280000000     0.779140000000     0.116866   
C433     C      0.029120000000     0.554630000000     0.252320000000     0.407804   
C434     C      0.515370000000     0.931640000000     0.242670000000     0.424822   
C435     C      0.959320000000     0.500280000000     0.233480000000     0.418387   
C436     C      0.584750000000     0.985650000000     0.262240000000     0.418679   
C437     C      0.033080000000     0.684940000000     0.256050000000     0.410605   
C438     C      0.031270000000     0.808790000000     0.258780000000     0.4037     
C439     C      0.023710000000     0.748250000000     0.195600000000     0.412875   
C440     C      0.040830000000     0.744920000000     0.319270000000     0.415677   
C441     C      0.778230000000     0.519240000000     0.188910000000     0.416442   
C442     C      0.765820000000     0.006630000000     0.312420000000     0.398648   
C443     C      0.836730000000     0.516010000000     0.256100000000     0.405933   
C444     C      0.707320000000     0.009300000000     0.245260000000     0.399807   
C445     C      0.774720000000     0.564410000000     0.006220000000     0.4114     
C446     C      0.759460000000     0.941110000000     0.502350000000     0.419863   
C447     C      0.765810000000     0.501130000000     0.066120000000     0.404533   
C448     C      0.768210000000     0.003820000000     0.441440000000     0.416497   
C449     C      0.516160000000     0.758180000000     0.068670000000     0.397726   
C450     C      0.044390000000     0.744020000000     0.447440000000     0.411356   
C451     C      0.589280000000     0.729560000000     0.022080000000     0.413904   
C452     C      0.971370000000     0.773240000000     0.492940000000     0.4197     
C453     C      0.787800000000     0.691550000000     0.011230000000     0.38825    
C454     C      0.772860000000     0.814580000000     0.000230000000     0.378847   
C455     C      0.715300000000     0.745600000000     0.010790000000     0.387761   
C456     C      0.844550000000     0.760040000000     0.000890000000     0.379057   
C457     C      0.897120000000     0.776850000000     0.024360000000    -0.0205925  
C458     C      0.895520000000     0.750340000000     0.471250000000    -0.047175   
C459     C      0.922710000000     0.799890000000     0.011530000000    -0.0162201  
C460     C      0.921650000000     0.773150000000     0.459620000000     0.116433   
C461     C      0.664110000000     0.755280000000     0.040250000000    -0.01464    
C462     C      0.663010000000     0.725930000000     0.488760000000    -0.0445173  
C463     C      0.639080000000     0.732220000000     0.053530000000    -0.00734337 
C464     C      0.638850000000     0.702470000000     0.503340000000     0.110499   
C465     C      0.791930000000     0.865930000000     0.518110000000    -0.0134806  
C466     C      0.754060000000     0.861900000000     0.471630000000    -0.0453013  
C467     C      0.772140000000     0.893210000000     0.030570000000    -0.00533399 
C468     C      0.734750000000     0.890600000000     0.983770000000     0.121592   
C469     C      0.812500000000     0.642220000000     0.992570000000     0.00457008 
C470     C      0.778090000000     0.643280000000     0.041250000000    -0.0447512  
C471     C      0.796040000000     0.611720000000     0.482340000000    -0.0102027  
C472     C      0.758450000000     0.615100000000     0.529550000000     0.115345   
C473     C      0.741150000000     0.525290000000     0.361760000000    -0.0127481  
C474     C      0.771880000000     0.974580000000     0.360120000000    -0.0435817  
C475     C      0.756170000000     0.532650000000     0.393740000000    -0.00887364 
C476     C      0.789220000000     0.982760000000     0.390980000000     0.116393   
C477     C      0.739650000000     0.515830000000     0.116400000000    -0.012006   
C478     C      0.791670000000     0.984280000000     0.115710000000    -0.04253    
C479     C      0.755530000000     0.538840000000     0.139590000000    -0.0107172  
C480     C      0.807170000000     0.007180000000     0.138710000000     0.1138     
C481     C      0.575980000000     0.758800000000     0.399690000000    -0.0111916  
C482     C      0.539640000000     0.712100000000     0.399550000000    -0.0408607  
C483     C      0.063820000000     0.767610000000     0.366660000000    -0.0104741  
C484     C      0.022750000000     0.722870000000     0.369600000000     0.112647   
C485     C      0.525390000000     0.785890000000     0.118790000000    -0.0151     
C486     C      0.985210000000     0.741960000000     0.116240000000    -0.0443066  
C487     C      0.542780000000     0.770180000000     0.146260000000    -0.0073018  
C488     C      0.000350000000     0.727330000000     0.145820000000     0.111954   
C489     C      0.652600000000     0.528550000000     0.261070000000    -0.0139209  
C490     C      0.658380000000     0.979750000000     0.228660000000    -0.0454738  
C491     C      0.632550000000     0.510100000000     0.285480000000    -0.0121913  
C492     C      0.639310000000     0.961760000000     0.253510000000     0.117451   
C493     C      0.889880000000     0.542700000000     0.245940000000    -0.0124325  
C494     C      0.887960000000     0.988120000000     0.266960000000    -0.0431493  
C495     C      0.911520000000     0.531170000000     0.218280000000    -0.013833   
C496     C      0.904900000000     0.976350000000     0.237530000000     0.117886   
C497     C      0.510120000000     0.858330000000     0.280130000000    -0.0124182  
C498     C      0.550390000000     0.857650000000     0.235050000000    -0.0475051  
C499     C      0.990320000000     0.883280000000     0.262900000000    -0.00887608 
C500     C      0.027940000000     0.879930000000     0.216920000000     0.117813   
C501     C      0.561750000000     0.635860000000     0.243500000000    -0.012043   
C502     C      0.504570000000     0.635820000000     0.267430000000    -0.0419834  
C503     C      0.051530000000     0.603630000000     0.231190000000    -0.00323111 
C504     C      0.014110000000     0.603280000000     0.279140000000     0.11695    
C505     C      0.029120000000     0.554630000000     0.752320000000     0.407737   
C506     C      0.515370000000     0.931640000000     0.742670000000     0.424745   
C507     C      0.959320000000     0.500280000000     0.733480000000     0.418329   
C508     C      0.584750000000     0.985650000000     0.762230000000     0.418624   
C509     C      0.033080000000     0.684940000000     0.756050000000     0.410584   
C510     C      0.031270000000     0.808790000000     0.758780000000     0.403691   
C511     C      0.023710000000     0.748250000000     0.695600000000     0.412943   
C512     C      0.040830000000     0.744920000000     0.819270000000     0.41569    
C513     C      0.778230000000     0.519240000000     0.688910000000     0.416638   
C514     C      0.765820000000     0.006630000000     0.812430000000     0.398476   
C515     C      0.836730000000     0.516010000000     0.756100000000     0.405934   
C516     C      0.707320000000     0.009300000000     0.745270000000     0.399802   
C517     C      0.774720000000     0.564410000000     0.506220000000     0.413192   
C518     C      0.759460000000     0.941110000000     0.002350000000     0.406531   
C519     C      0.765810000000     0.501130000000     0.566120000000     0.405269   
C520     C      0.768210000000     0.003820000000     0.941440000000     0.414801   
C521     C      0.516160000000     0.758180000000     0.568670000000     0.398887   
C522     C      0.044390000000     0.744020000000     0.947440000000     0.40934    
C523     C      0.589280000000     0.729560000000     0.522080000000     0.416531   
C524     C      0.971370000000     0.773240000000     0.992940000000     0.418582   
C525     C      0.787800000000     0.691550000000     0.511230000000     0.399537   
C526     C      0.772860000000     0.814580000000     0.500230000000     0.398632   
C527     C      0.715300000000     0.745600000000     0.510790000000     0.39912    
C528     C      0.844550000000     0.760040000000     0.500890000000     0.398662   
C529     C      0.897120000000     0.776850000000     0.524360000000    -0.0138394  
C530     C      0.895520000000     0.750340000000     0.971250000000    -0.0474693  
C531     C      0.922710000000     0.799890000000     0.511530000000    -0.0104045  
C532     C      0.921650000000     0.773150000000     0.959620000000     0.117021   
C533     C      0.664110000000     0.755280000000     0.540250000000    -0.0148721  
C534     C      0.663010000000     0.725930000000     0.988760000000    -0.0273634  
C535     C      0.639080000000     0.732220000000     0.553530000000    -0.00632343 
C536     C      0.638850000000     0.702470000000     0.003330000000     0.0950278  
C537     C      0.791930000000     0.865930000000     0.018110000000    -0.0216115  
C538     C      0.754060000000     0.861900000000     0.971630000000    -0.046597   
C539     C      0.772140000000     0.893210000000     0.530570000000    -0.00634303 
C540     C      0.734750000000     0.890600000000     0.483770000000     0.115383   
C541     C      0.812500000000     0.642220000000     0.492570000000    -0.0127901  
C542     C      0.778090000000     0.643280000000     0.541250000000    -0.044217   
C543     C      0.796040000000     0.611720000000     0.982340000000    -0.00712932 
C544     C      0.758450000000     0.615100000000     0.029550000000     0.114889   
C545     C      0.741150000000     0.525290000000     0.861760000000    -0.012689   
C546     C      0.771880000000     0.974580000000     0.860120000000    -0.0434985  
C547     C      0.756170000000     0.532650000000     0.893740000000    -0.00902722 
C548     C      0.789220000000     0.982760000000     0.890980000000     0.116096   
C549     C      0.739650000000     0.515830000000     0.616400000000    -0.0120197  
C550     C      0.791670000000     0.984280000000     0.615710000000    -0.0425009  
C551     C      0.755530000000     0.538840000000     0.639590000000    -0.0107339  
C552     C      0.807170000000     0.007180000000     0.638710000000     0.113744   
C553     C      0.575980000000     0.758800000000     0.899690000000    -0.0113472  
C554     C      0.539640000000     0.712100000000     0.899550000000    -0.0410879  
C555     C      0.063820000000     0.767610000000     0.866660000000    -0.0104406  
C556     C      0.022750000000     0.722870000000     0.869600000000     0.112698   
C557     C      0.525390000000     0.785890000000     0.618790000000    -0.0150986  
C558     C      0.985210000000     0.741960000000     0.616240000000    -0.0442894  
C559     C      0.542780000000     0.770180000000     0.646260000000    -0.0073353  
C560     C      0.000350000000     0.727330000000     0.645820000000     0.111915   
C561     C      0.652600000000     0.528550000000     0.761070000000    -0.0139401  
C562     C      0.658380000000     0.979750000000     0.728660000000    -0.0455121  
C563     C      0.632550000000     0.510100000000     0.785480000000    -0.0122342  
C564     C      0.639310000000     0.961760000000     0.753510000000     0.117435   
C565     C      0.889880000000     0.542700000000     0.745930000000    -0.0124726  
C566     C      0.887960000000     0.988120000000     0.766960000000    -0.0432091  
C567     C      0.911520000000     0.531170000000     0.718280000000    -0.0138467  
C568     C      0.904900000000     0.976350000000     0.737530000000     0.117896   
C569     C      0.510120000000     0.858330000000     0.780130000000    -0.0125029  
C570     C      0.550390000000     0.857650000000     0.735050000000    -0.0474793  
C571     C      0.990320000000     0.883280000000     0.762900000000    -0.00887129 
C572     C      0.027940000000     0.879930000000     0.716910000000     0.11771    
C573     C      0.561750000000     0.635860000000     0.743500000000    -0.0120519  
C574     C      0.504570000000     0.635820000000     0.767430000000    -0.0419304  
C575     C      0.051530000000     0.603630000000     0.731190000000    -0.00326721 
C576     C      0.014110000000     0.603280000000     0.779140000000     0.116832   
Cu1      Cu     0.529500000000     0.494650000000     0.219600000000     0.866154   
Cu2      Cu     0.014750000000     0.991800000000     0.275700000000     0.869757   
Cu3      Cu     0.502290000000     0.246140000000     0.261570000000     0.875368   
Cu4      Cu     0.062250000000     0.247760000000     0.253370000000     0.854082   
Cu5      Cu     0.269740000000     0.041590000000     0.253360000000     0.840442   
Cu6      Cu     0.274230000000     0.484370000000     0.247830000000     0.875093   
Cu7      Cu     0.237000000000     0.506510000000     0.003350000000     0.843171   
Cu8      Cu     0.296960000000     0.999090000000     0.504150000000     0.867016   
Cu9      Cu     0.018770000000     0.224610000000     0.508460000000     0.868595   
Cu10     Cu     0.541580000000     0.278100000000     0.007530000000     0.837122   
Cu11     Cu     0.281920000000     0.256040000000     0.034400000000     0.841653   
Cu12     Cu     0.277890000000     0.249920000000     0.476990000000     0.842838   
Cu13     Cu     0.529500000000     0.494650000000     0.719600000000     0.866292   
Cu14     Cu     0.014750000000     0.991800000000     0.775690000000     0.870087   
Cu15     Cu     0.502290000000     0.246140000000     0.761570000000     0.875322   
Cu16     Cu     0.062250000000     0.247760000000     0.753380000000     0.854004   
Cu17     Cu     0.269740000000     0.041590000000     0.753360000000     0.840289   
Cu18     Cu     0.274230000000     0.484370000000     0.747830000000     0.875185   
Cu19     Cu     0.237000000000     0.506510000000     0.503350000000     0.859476   
Cu20     Cu     0.296960000000     0.999090000000     0.004150000000     0.858397   
Cu21     Cu     0.018770000000     0.224610000000     0.008460000000     0.853188   
Cu22     Cu     0.541580000000     0.278100000000     0.507530000000     0.85209    
Cu23     Cu     0.281920000000     0.256040000000     0.534400000000     0.852688   
Cu24     Cu     0.277890000000     0.249920000000     0.976990000000     0.84823    
Cu25     Cu     0.529500000000     0.994650000000     0.219600000000     0.868632   
Cu26     Cu     0.014750000000     0.491800000000     0.275700000000     0.868495   
Cu27     Cu     0.502290000000     0.746130000000     0.261570000000     0.875376   
Cu28     Cu     0.062250000000     0.747760000000     0.253370000000     0.854073   
Cu29     Cu     0.269740000000     0.541590000000     0.253360000000     0.84212    
Cu30     Cu     0.274230000000     0.984370000000     0.247830000000     0.876014   
Cu31     Cu     0.237000000000     0.006510000000     0.003350000000     0.840144   
Cu32     Cu     0.296960000000     0.499090000000     0.504150000000     0.864201   
Cu33     Cu     0.018770000000     0.724610000000     0.508460000000     0.868628   
Cu34     Cu     0.541580000000     0.778100000000     0.007530000000     0.837129   
Cu35     Cu     0.281920000000     0.756040000000     0.034400000000     0.84176    
Cu36     Cu     0.277890000000     0.749920000000     0.476990000000     0.842824   
Cu37     Cu     0.529500000000     0.994650000000     0.719600000000     0.868773   
Cu38     Cu     0.014750000000     0.491800000000     0.775690000000     0.868829   
Cu39     Cu     0.502290000000     0.746130000000     0.761570000000     0.87533    
Cu40     Cu     0.062250000000     0.747760000000     0.753380000000     0.853995   
Cu41     Cu     0.269740000000     0.541590000000     0.753360000000     0.841972   
Cu42     Cu     0.274230000000     0.984370000000     0.747830000000     0.876106   
Cu43     Cu     0.237000000000     0.006510000000     0.503350000000     0.856378   
Cu44     Cu     0.296960000000     0.499090000000     0.004150000000     0.855577   
Cu45     Cu     0.018770000000     0.724610000000     0.008460000000     0.853206   
Cu46     Cu     0.541580000000     0.778100000000     0.507530000000     0.852096   
Cu47     Cu     0.281920000000     0.756040000000     0.534400000000     0.852799   
Cu48     Cu     0.277890000000     0.749920000000     0.976990000000     0.848218   
Cu49     Cu     0.029500000000     0.494650000000     0.219600000000     0.866059   
Cu50     Cu     0.514750000000     0.991800000000     0.275700000000     0.869845   
Cu51     Cu     0.002290000000     0.246140000000     0.261570000000     0.875233   
Cu52     Cu     0.562250000000     0.247760000000     0.253370000000     0.854073   
Cu53     Cu     0.769740000000     0.041590000000     0.253360000000     0.840462   
Cu54     Cu     0.774230000000     0.484370000000     0.247830000000     0.874971   
Cu55     Cu     0.737000000000     0.506510000000     0.003350000000     0.843171   
Cu56     Cu     0.796960000000     0.999090000000     0.504150000000     0.867024   
Cu57     Cu     0.518770000000     0.224610000000     0.508460000000     0.868694   
Cu58     Cu     0.041580000000     0.278100000000     0.007530000000     0.837046   
Cu59     Cu     0.781920000000     0.256040000000     0.034400000000     0.841674   
Cu60     Cu     0.777890000000     0.249920000000     0.476990000000     0.842695   
Cu61     Cu     0.029500000000     0.494650000000     0.719600000000     0.866197   
Cu62     Cu     0.514750000000     0.991800000000     0.775690000000     0.870176   
Cu63     Cu     0.002290000000     0.246140000000     0.761570000000     0.875187   
Cu64     Cu     0.562250000000     0.247760000000     0.753380000000     0.853995   
Cu65     Cu     0.769740000000     0.041590000000     0.753360000000     0.840308   
Cu66     Cu     0.774230000000     0.484370000000     0.747830000000     0.875063   
Cu67     Cu     0.737000000000     0.506510000000     0.503350000000     0.859477   
Cu68     Cu     0.796960000000     0.999090000000     0.004150000000     0.858405   
Cu69     Cu     0.518770000000     0.224610000000     0.008460000000     0.853285   
Cu70     Cu     0.041580000000     0.278100000000     0.507530000000     0.852012   
Cu71     Cu     0.781920000000     0.256040000000     0.534400000000     0.852708   
Cu72     Cu     0.777890000000     0.249920000000     0.976990000000     0.848088   
Cu73     Cu     0.029500000000     0.994650000000     0.219600000000     0.868537   
Cu74     Cu     0.514750000000     0.491800000000     0.275700000000     0.868584   
Cu75     Cu     0.002290000000     0.746130000000     0.261570000000     0.875241   
Cu76     Cu     0.562250000000     0.747760000000     0.253370000000     0.854064   
Cu77     Cu     0.769740000000     0.541590000000     0.253360000000     0.84214    
Cu78     Cu     0.774230000000     0.984370000000     0.247830000000     0.875892   
Cu79     Cu     0.737000000000     0.006510000000     0.003350000000     0.840144   
Cu80     Cu     0.796960000000     0.499090000000     0.504150000000     0.864208   
Cu81     Cu     0.518770000000     0.724610000000     0.508460000000     0.868727   
Cu82     Cu     0.041580000000     0.778100000000     0.007530000000     0.837053   
Cu83     Cu     0.781920000000     0.756040000000     0.034400000000     0.84178    
Cu84     Cu     0.777890000000     0.749920000000     0.476990000000     0.84268    
Cu85     Cu     0.029500000000     0.994650000000     0.719600000000     0.868678   
Cu86     Cu     0.514750000000     0.491800000000     0.775690000000     0.868918   
Cu87     Cu     0.002290000000     0.746130000000     0.761570000000     0.875195   
Cu88     Cu     0.562250000000     0.747760000000     0.753380000000     0.853986   
Cu89     Cu     0.769740000000     0.541590000000     0.753360000000     0.841992   
Cu90     Cu     0.774230000000     0.984370000000     0.747830000000     0.875984   
Cu91     Cu     0.737000000000     0.006510000000     0.503350000000     0.856378   
Cu92     Cu     0.796960000000     0.499090000000     0.004150000000     0.855584   
Cu93     Cu     0.518770000000     0.724610000000     0.008460000000     0.853304   
Cu94     Cu     0.041580000000     0.778100000000     0.507530000000     0.852019   
Cu95     Cu     0.781920000000     0.756040000000     0.534400000000     0.85282    
Cu96     Cu     0.777890000000     0.749920000000     0.976990000000     0.848076   
H1       H      0.407840000000     0.228470000000     0.478850000000     0.0703789  
H2       H      0.410100000000     0.257680000000     0.036800000000     0.0490817  
H3       H      0.439010000000     0.307690000000     0.030960000000     0.0420665  
H4       H      0.378900000000     0.244240000000     0.451520000000     0.0696051  
H5       H      0.408600000000     0.293290000000     0.448920000000     0.0348049  
H6       H      0.381410000000     0.289230000000     0.041680000000     0.0481976  
H7       H      0.409680000000     0.320620000000     0.002000000000     0.0452384  
H8       H      0.148910000000     0.243910000000     0.475650000000     0.0658074  
H9       H      0.150710000000     0.276210000000     0.031720000000     0.0501633  
H10      H      0.123130000000     0.244290000000     0.070910000000     0.0397554  
H11      H      0.179020000000     0.213420000000     0.471790000000     0.0676555  
H12      H      0.153500000000     0.183480000000     0.514290000000     0.0356356  
H13      H      0.180510000000     0.263110000000     0.059510000000     0.049102   
H14      H      0.152630000000     0.213420000000     0.065970000000     0.0455323  
H15      H      0.272390000000     0.369900000000     0.454080000000     0.0777044  
H16      H      0.312700000000     0.375420000000     0.504180000000     0.0528398  
H17      H      0.288320000000     0.408850000000     0.044540000000     0.0447154  
H18      H      0.236900000000     0.345560000000     0.459720000000     0.0669651  
H19      H      0.213630000000     0.381850000000     0.997690000000     0.0341188  
H20      H      0.302570000000     0.352780000000     0.038170000000     0.0496723  
H21      H      0.253130000000     0.383850000000     0.046730000000     0.0432216  
H22      H      0.298570000000     0.134920000000     0.056280000000     0.0672169  
H23      H      0.335560000000     0.136090000000     0.004990000000     0.0370582  
H24      H      0.314660000000     0.096210000000     0.471340000000     0.0457465  
H25      H      0.261870000000     0.158460000000     0.055670000000     0.0668483  
H26      H      0.236770000000     0.123740000000     0.516340000000     0.03556    
H27      H      0.319380000000     0.156040000000     0.471490000000     0.0480767  
H28      H      0.277760000000     0.117410000000     0.463860000000     0.0439642  
H29      H      0.249790000000     0.460310000000     0.365390000000     0.0754168  
H30      H      0.216810000000     0.014370000000     0.365780000000     0.0489145  
H31      H      0.237790000000     0.045150000000     0.408370000000     0.0473971  
H32      H      0.288710000000     0.460370000000     0.345340000000     0.0695187  
H33      H      0.312820000000     0.494430000000     0.385350000000     0.0338001  
H34      H      0.236910000000     0.047430000000     0.348750000000     0.0476955  
H35      H      0.276990000000     0.048970000000     0.390000000000     0.0429943  
H36      H      0.280760000000     0.464760000000     0.129370000000     0.0666747  
H37      H      0.225800000000     0.998090000000     0.130060000000     0.0499195  
H38      H      0.236310000000     0.048730000000     0.155220000000     0.0484974  
H39      H      0.310770000000     0.474240000000     0.100070000000     0.0680124  
H40      H      0.319610000000     0.525370000000     0.124400000000     0.0363338  
H41      H      0.222060000000     0.028640000000     0.101210000000     0.0616987  
H42      H      0.266780000000     0.058250000000     0.126060000000     0.0616763  
H43      H      0.060620000000     0.196740000000     0.393250000000     0.0781549  
H44      H      0.098940000000     0.245110000000     0.396990000000     0.050696   
H45      H      0.585060000000     0.275100000000     0.352130000000     0.0483334  
H46      H      0.021990000000     0.198090000000     0.413560000000     0.0832758  
H47      H      0.500740000000     0.236770000000     0.375920000000     0.0522448  
H48      H      0.582280000000     0.280380000000     0.412840000000     0.0510804  
H49      H      0.547540000000     0.288300000000     0.368970000000     0.0473639  
H50      H      0.464320000000     0.256920000000     0.123600000000     0.0652631  
H51      H      0.006630000000     0.302190000000     0.128270000000     0.0510497  
H52      H      0.053810000000     0.288570000000     0.161420000000     0.0457418  
H53      H      0.475220000000     0.223270000000     0.100880000000     0.0669556  
H54      H      0.517560000000     0.208860000000     0.137810000000     0.031946   
H55      H      0.043560000000     0.299710000000     0.105230000000     0.0514042  
H56      H      0.062930000000     0.255320000000     0.136990000000     0.0463138  
H57      H      0.140940000000     0.988190000000     0.210510000000     0.071254   
H58      H      0.135290000000     0.039740000000     0.244360000000     0.0469245  
H59      H      0.114250000000     0.025860000000     0.296640000000     0.0506635  
H60      H      0.176300000000     0.464100000000     0.216880000000     0.0701688  
H61      H      0.157420000000     0.452750000000     0.270790000000     0.0355006  
H62      H      0.166540000000     0.047270000000     0.273240000000     0.0487143  
H63      H      0.149520000000     0.501480000000     0.303970000000     0.0482095  
H64      H      0.406710000000     0.493770000000     0.285010000000     0.0702099  
H65      H      0.406360000000     0.051360000000     0.264790000000     0.0468694  
H66      H      0.430120000000     0.049270000000     0.212490000000     0.0442612  
H67      H      0.371820000000     0.469700000000     0.276920000000     0.072297   
H68      H      0.385730000000     0.472080000000     0.219530000000     0.0533114  
H69      H      0.374400000000     0.062490000000     0.237890000000     0.0509242  
H70      H      0.395510000000     0.027940000000     0.197460000000     0.0617815  
H71      H      0.069290000000     0.371450000000     0.247660000000     0.0813514  
H72      H      0.026490000000     0.370350000000     0.297120000000     0.0508963  
H73      H      0.478710000000     0.399050000000     0.280370000000     0.063271   
H74      H      0.062870000000     0.341660000000     0.218290000000     0.0696916  
H75      H      0.509270000000     0.365370000000     0.204760000000     0.0351138  
H76      H      0.493370000000     0.343040000000     0.293830000000     0.0505471  
H77      H      0.470270000000     0.371280000000     0.249980000000     0.0597431  
H78      H      0.991960000000     0.148730000000     0.286570000000     0.0827489  
H79      H      0.080140000000     0.132990000000     0.262510000000     0.0633988  
H80      H      0.073820000000     0.090260000000     0.224480000000     0.0446098  
H81      H      0.986650000000     0.133350000000     0.247940000000     0.0597738  
H82      H      0.491240000000     0.090690000000     0.285590000000     0.0328146  
H83      H      0.073810000000     0.149080000000     0.224230000000     0.0472833  
H84      H      0.536530000000     0.106650000000     0.209620000000     0.0485405  
H85      H      0.407840000000     0.228470000000     0.978850000000     0.0727625  
H86      H      0.410100000000     0.257680000000     0.536800000000     0.0497022  
H87      H      0.439010000000     0.307690000000     0.530960000000     0.0426717  
H88      H      0.378900000000     0.244240000000     0.951520000000     0.0704961  
H89      H      0.408600000000     0.293290000000     0.948920000000     0.0362945  
H90      H      0.381410000000     0.289230000000     0.541680000000     0.0471915  
H91      H      0.409680000000     0.320620000000     0.502000000000     0.0471577  
H92      H      0.148910000000     0.243910000000     0.975650000000     0.0648689  
H93      H      0.150710000000     0.276210000000     0.531720000000     0.0519893  
H94      H      0.123130000000     0.244290000000     0.570910000000     0.0395994  
H95      H      0.179020000000     0.213420000000     0.971790000000     0.0659444  
H96      H      0.153500000000     0.183480000000     0.014290000000     0.0365064  
H97      H      0.180510000000     0.263110000000     0.559510000000     0.0493798  
H98      H      0.152630000000     0.213420000000     0.565970000000     0.0455493  
H99      H      0.272390000000     0.369900000000     0.954080000000     0.0795938  
H100     H      0.312700000000     0.375420000000     0.004170000000     0.0519441  
H101     H      0.288320000000     0.408850000000     0.544540000000     0.0451176  
H102     H      0.236900000000     0.345560000000     0.959720000000     0.0683635  
H103     H      0.213630000000     0.381850000000     0.497690000000     0.032113   
H104     H      0.302570000000     0.352780000000     0.538170000000     0.0484612  
H105     H      0.253130000000     0.383850000000     0.546730000000     0.0449207  
H106     H      0.298570000000     0.134920000000     0.556270000000     0.0676357  
H107     H      0.335560000000     0.136090000000     0.504990000000     0.0467803  
H108     H      0.314660000000     0.096210000000     0.971340000000     0.0481822  
H109     H      0.261870000000     0.158460000000     0.555670000000     0.0669158  
H110     H      0.236770000000     0.123740000000     0.016340000000     0.0334245  
H111     H      0.319380000000     0.156040000000     0.971490000000     0.0461738  
H112     H      0.277760000000     0.117410000000     0.963860000000     0.0454201  
H113     H      0.249790000000     0.460310000000     0.865390000000     0.0755226  
H114     H      0.216810000000     0.014370000000     0.865780000000     0.0492479  
H115     H      0.237790000000     0.045150000000     0.908370000000     0.0484261  
H116     H      0.288710000000     0.460370000000     0.845340000000     0.0695691  
H117     H      0.312820000000     0.494430000000     0.885340000000     0.0343657  
H118     H      0.236910000000     0.047430000000     0.848750000000     0.047879   
H119     H      0.276990000000     0.048970000000     0.890000000000     0.043596   
H120     H      0.280760000000     0.464760000000     0.629370000000     0.066787   
H121     H      0.225800000000     0.998090000000     0.630060000000     0.050165   
H122     H      0.236310000000     0.048730000000     0.655220000000     0.0485698  
H123     H      0.310770000000     0.474240000000     0.600070000000     0.0682816  
H124     H      0.319610000000     0.525370000000     0.624400000000     0.0365353  
H125     H      0.222060000000     0.028640000000     0.601210000000     0.0619929  
H126     H      0.266780000000     0.058250000000     0.626060000000     0.0617132  
H127     H      0.060620000000     0.196740000000     0.893250000000     0.0784876  
H128     H      0.098940000000     0.245110000000     0.896990000000     0.0510612  
H129     H      0.585060000000     0.275100000000     0.852130000000     0.0484799  
H130     H      0.021990000000     0.198090000000     0.913560000000     0.0839559  
H131     H      0.500740000000     0.236770000000     0.875920000000     0.0523837  
H132     H      0.582280000000     0.280380000000     0.912840000000     0.0519333  
H133     H      0.547540000000     0.288300000000     0.868970000000     0.0476727  
H134     H      0.464320000000     0.256920000000     0.623600000000     0.0654652  
H135     H      0.006630000000     0.302190000000     0.628270000000     0.0513011  
H136     H      0.053810000000     0.288570000000     0.661420000000     0.0458111  
H137     H      0.475220000000     0.223270000000     0.600880000000     0.0674457  
H138     H      0.517560000000     0.208860000000     0.637810000000     0.0320992  
H139     H      0.043560000000     0.299710000000     0.605230000000     0.0517412  
H140     H      0.062930000000     0.255320000000     0.636990000000     0.0463513  
H141     H      0.140940000000     0.988190000000     0.710510000000     0.0713862  
H142     H      0.135290000000     0.039740000000     0.744360000000     0.0469676  
H143     H      0.114250000000     0.025860000000     0.796640000000     0.0508795  
H144     H      0.176300000000     0.464100000000     0.716880000000     0.0702504  
H145     H      0.157420000000     0.452750000000     0.770790000000     0.0355673  
H146     H      0.166540000000     0.047270000000     0.773240000000     0.0487775  
H147     H      0.149520000000     0.501480000000     0.803970000000     0.0484218  
H148     H      0.406710000000     0.493770000000     0.785010000000     0.0704274  
H149     H      0.406360000000     0.051360000000     0.764790000000     0.0469883  
H150     H      0.430120000000     0.049270000000     0.712490000000     0.0443782  
H151     H      0.371820000000     0.469700000000     0.776920000000     0.0724164  
H152     H      0.385730000000     0.472080000000     0.719530000000     0.0533385  
H153     H      0.374400000000     0.062490000000     0.737890000000     0.0509798  
H154     H      0.395510000000     0.027940000000     0.697460000000     0.0618978  
H155     H      0.069290000000     0.371450000000     0.747660000000     0.081379   
H156     H      0.026490000000     0.370350000000     0.797110000000     0.0511501  
H157     H      0.478710000000     0.399050000000     0.780370000000     0.063437   
H158     H      0.062870000000     0.341660000000     0.718290000000     0.0697085  
H159     H      0.509270000000     0.365370000000     0.704760000000     0.0351945  
H160     H      0.493370000000     0.343040000000     0.793830000000     0.0507191  
H161     H      0.470270000000     0.371280000000     0.749980000000     0.0597805  
H162     H      0.991960000000     0.148730000000     0.786580000000     0.0827857  
H163     H      0.080140000000     0.132990000000     0.762510000000     0.0634182  
H164     H      0.073820000000     0.090260000000     0.724470000000     0.0446916  
H165     H      0.986650000000     0.133350000000     0.747940000000     0.0598018  
H166     H      0.491240000000     0.090690000000     0.785590000000     0.0329826  
H167     H      0.073810000000     0.149080000000     0.724230000000     0.0473283  
H168     H      0.536530000000     0.106650000000     0.709620000000     0.0486811  
H169     H      0.407840000000     0.728470000000     0.478850000000     0.070405   
H170     H      0.410100000000     0.757680000000     0.036800000000     0.0490912  
H171     H      0.439010000000     0.807690000000     0.030960000000     0.042102   
H172     H      0.378900000000     0.744240000000     0.451520000000     0.0696197  
H173     H      0.408600000000     0.793290000000     0.448920000000     0.0348184  
H174     H      0.381410000000     0.789230000000     0.041680000000     0.0482062  
H175     H      0.409680000000     0.820620000000     0.002000000000     0.0452763  
H176     H      0.148910000000     0.743910000000     0.475650000000     0.065805   
H177     H      0.150710000000     0.776210000000     0.031720000000     0.0501898  
H178     H      0.123130000000     0.744290000000     0.070910000000     0.0397606  
H179     H      0.179020000000     0.713420000000     0.471790000000     0.0676622  
H180     H      0.153500000000     0.683480000000     0.514290000000     0.0356821  
H181     H      0.180510000000     0.763100000000     0.059510000000     0.0491246  
H182     H      0.152630000000     0.713420000000     0.065970000000     0.0455436  
H183     H      0.272390000000     0.869900000000     0.454080000000     0.0777152  
H184     H      0.312700000000     0.875420000000     0.504180000000     0.0528643  
H185     H      0.288320000000     0.908850000000     0.044540000000     0.0447958  
H186     H      0.236900000000     0.845560000000     0.459720000000     0.0669642  
H187     H      0.213630000000     0.881850000000     0.997690000000     0.0341939  
H188     H      0.302570000000     0.852780000000     0.038170000000     0.0496811  
H189     H      0.253130000000     0.883850000000     0.046730000000     0.0432892  
H190     H      0.298570000000     0.634920000000     0.056280000000     0.0672637  
H191     H      0.335560000000     0.636090000000     0.004990000000     0.0371201  
H192     H      0.314660000000     0.596210000000     0.471340000000     0.0458883  
H193     H      0.261870000000     0.658460000000     0.055670000000     0.0668534  
H194     H      0.236770000000     0.623740000000     0.516340000000     0.0355779  
H195     H      0.319380000000     0.656040000000     0.471490000000     0.0481116  
H196     H      0.277760000000     0.617410000000     0.463860000000     0.0440016  
H197     H      0.249790000000     0.960310000000     0.365390000000     0.0755705  
H198     H      0.216810000000     0.514370000000     0.365780000000     0.0492135  
H199     H      0.237790000000     0.545150000000     0.408370000000     0.0474158  
H200     H      0.288710000000     0.960370000000     0.345340000000     0.0694778  
H201     H      0.312820000000     0.994430000000     0.385350000000     0.0341563  
H202     H      0.236910000000     0.547430000000     0.348750000000     0.0477011  
H203     H      0.276990000000     0.548970000000     0.390000000000     0.0431542  
H204     H      0.280760000000     0.964760000000     0.129370000000     0.066346   
H205     H      0.225800000000     0.498090000000     0.130060000000     0.0483715  
H206     H      0.236310000000     0.548730000000     0.155220000000     0.0487233  
H207     H      0.310770000000     0.974240000000     0.100070000000     0.0677014  
H208     H      0.319610000000     0.025370000000     0.124400000000     0.0365164  
H209     H      0.222060000000     0.528640000000     0.101210000000     0.0614687  
H210     H      0.266780000000     0.558250000000     0.126060000000     0.0617462  
H211     H      0.060620000000     0.696740000000     0.393250000000     0.0781759  
H212     H      0.098940000000     0.745110000000     0.396990000000     0.0506997  
H213     H      0.585060000000     0.775100000000     0.352130000000     0.0483178  
H214     H      0.021990000000     0.698090000000     0.413560000000     0.0833121  
H215     H      0.500740000000     0.736770000000     0.375920000000     0.0522508  
H216     H      0.582280000000     0.780390000000     0.412840000000     0.0510975  
H217     H      0.547540000000     0.788300000000     0.368970000000     0.0473554  
H218     H      0.464320000000     0.756920000000     0.123600000000     0.0652711  
H219     H      0.006630000000     0.802180000000     0.128270000000     0.0510983  
H220     H      0.053810000000     0.788580000000     0.161420000000     0.0457305  
H221     H      0.475220000000     0.723270000000     0.100880000000     0.0669823  
H222     H      0.517560000000     0.708860000000     0.137810000000     0.0319714  
H223     H      0.043560000000     0.799710000000     0.105230000000     0.0514545  
H224     H      0.062930000000     0.755320000000     0.136990000000     0.0463106  
H225     H      0.140940000000     0.488190000000     0.210510000000     0.071056   
H226     H      0.135290000000     0.539740000000     0.244360000000     0.0472662  
H227     H      0.114250000000     0.525860000000     0.296640000000     0.0507279  
H228     H      0.176300000000     0.964100000000     0.216880000000     0.0701111  
H229     H      0.157420000000     0.952750000000     0.270790000000     0.0358221  
H230     H      0.166540000000     0.547270000000     0.273240000000     0.048771   
H231     H      0.149520000000     0.001480000000     0.303970000000     0.0480343  
H232     H      0.406710000000     0.993770000000     0.285010000000     0.07049    
H233     H      0.406360000000     0.551360000000     0.264790000000     0.0470788  
H234     H      0.430120000000     0.549270000000     0.212490000000     0.0443259  
H235     H      0.371820000000     0.969700000000     0.276920000000     0.0722595  
H236     H      0.385730000000     0.972080000000     0.219530000000     0.0534382  
H237     H      0.374400000000     0.562490000000     0.237890000000     0.0509272  
H238     H      0.395510000000     0.527940000000     0.197460000000     0.0621607  
H239     H      0.069290000000     0.871460000000     0.247660000000     0.0813461  
H240     H      0.026490000000     0.870350000000     0.297120000000     0.0509417  
H241     H      0.478710000000     0.899050000000     0.280370000000     0.0633055  
H242     H      0.062870000000     0.841660000000     0.218290000000     0.0696881  
H243     H      0.509270000000     0.865370000000     0.204760000000     0.0351432  
H244     H      0.493370000000     0.843040000000     0.293830000000     0.0505659  
H245     H      0.470270000000     0.871280000000     0.249980000000     0.0597528  
H246     H      0.991960000000     0.648730000000     0.286570000000     0.0827682  
H247     H      0.080140000000     0.632990000000     0.262510000000     0.0634123  
H248     H      0.073820000000     0.590260000000     0.224480000000     0.0447369  
H249     H      0.986650000000     0.633350000000     0.247940000000     0.0598049  
H250     H      0.491240000000     0.590700000000     0.285590000000     0.0329225  
H251     H      0.073810000000     0.649080000000     0.224230000000     0.0473052  
H252     H      0.536530000000     0.606650000000     0.209620000000     0.0486276  
H253     H      0.407840000000     0.728470000000     0.978850000000     0.0727908  
H254     H      0.410100000000     0.757680000000     0.536800000000     0.0497125  
H255     H      0.439010000000     0.807690000000     0.530960000000     0.0427068  
H256     H      0.378900000000     0.744240000000     0.951520000000     0.0705114  
H257     H      0.408600000000     0.793290000000     0.948920000000     0.0363071  
H258     H      0.381410000000     0.789230000000     0.541680000000     0.0471994  
H259     H      0.409680000000     0.820620000000     0.502000000000     0.0471949  
H260     H      0.148910000000     0.743910000000     0.975650000000     0.0648632  
H261     H      0.150710000000     0.776210000000     0.531720000000     0.052016   
H262     H      0.123130000000     0.744290000000     0.570910000000     0.0396046  
H263     H      0.179020000000     0.713420000000     0.971790000000     0.065949   
H264     H      0.153500000000     0.683480000000     0.014290000000     0.0365502  
H265     H      0.180510000000     0.763100000000     0.559510000000     0.0494021  
H266     H      0.152630000000     0.713420000000     0.565970000000     0.0455608  
H267     H      0.272390000000     0.869900000000     0.954080000000     0.0796031  
H268     H      0.312700000000     0.875420000000     0.004170000000     0.0519697  
H269     H      0.288320000000     0.908850000000     0.544540000000     0.0451983  
H270     H      0.236900000000     0.845560000000     0.959720000000     0.0683622  
H271     H      0.213630000000     0.881850000000     0.497690000000     0.0321903  
H272     H      0.302570000000     0.852780000000     0.538170000000     0.0484702  
H273     H      0.253130000000     0.883850000000     0.546730000000     0.0449872  
H274     H      0.298570000000     0.634920000000     0.556270000000     0.0676836  
H275     H      0.335560000000     0.636090000000     0.504990000000     0.0468601  
H276     H      0.314660000000     0.596210000000     0.971340000000     0.0483323  
H277     H      0.261870000000     0.658460000000     0.555670000000     0.066921   
H278     H      0.236770000000     0.623740000000     0.016340000000     0.0334384  
H279     H      0.319380000000     0.656040000000     0.971490000000     0.0462046  
H280     H      0.277760000000     0.617410000000     0.963860000000     0.0454621  
H281     H      0.249790000000     0.960310000000     0.865390000000     0.0756761  
H282     H      0.216810000000     0.514370000000     0.865780000000     0.0495499  
H283     H      0.237790000000     0.545150000000     0.908370000000     0.0484478  
H284     H      0.288710000000     0.960370000000     0.845340000000     0.069528   
H285     H      0.312820000000     0.994430000000     0.885340000000     0.0347195  
H286     H      0.236910000000     0.547430000000     0.848750000000     0.0478851  
H287     H      0.276990000000     0.548970000000     0.890000000000     0.0437577  
H288     H      0.280760000000     0.964760000000     0.629370000000     0.0664567  
H289     H      0.225800000000     0.498090000000     0.630060000000     0.0486121  
H290     H      0.236310000000     0.548730000000     0.655220000000     0.0487971  
H291     H      0.310770000000     0.974240000000     0.600070000000     0.0679684  
H292     H      0.319610000000     0.025370000000     0.624400000000     0.0367181  
H293     H      0.222060000000     0.528640000000     0.601210000000     0.061763   
H294     H      0.266780000000     0.558250000000     0.626060000000     0.0617834  
H295     H      0.060620000000     0.696740000000     0.893250000000     0.0785094  
H296     H      0.098940000000     0.745110000000     0.896990000000     0.0510651  
H297     H      0.585060000000     0.775100000000     0.852130000000     0.0484642  
H298     H      0.021990000000     0.698090000000     0.913560000000     0.0839934  
H299     H      0.500740000000     0.736770000000     0.875920000000     0.0523898  
H300     H      0.582280000000     0.780390000000     0.912840000000     0.0519501  
H301     H      0.547540000000     0.788300000000     0.868970000000     0.0476638  
H302     H      0.464320000000     0.756920000000     0.623600000000     0.0654732  
H303     H      0.006630000000     0.802180000000     0.628270000000     0.0513495  
H304     H      0.053810000000     0.788580000000     0.661420000000     0.0457997  
H305     H      0.475220000000     0.723270000000     0.600880000000     0.0674732  
H306     H      0.517560000000     0.708860000000     0.637810000000     0.0321252  
H307     H      0.043560000000     0.799710000000     0.605230000000     0.0517912  
H308     H      0.062930000000     0.755320000000     0.636990000000     0.0463482  
H309     H      0.140940000000     0.488190000000     0.710510000000     0.071189   
H310     H      0.135290000000     0.539740000000     0.744360000000     0.0473107  
H311     H      0.114250000000     0.525860000000     0.796640000000     0.050945   
H312     H      0.176300000000     0.964100000000     0.716880000000     0.0701923  
H313     H      0.157420000000     0.952750000000     0.770790000000     0.0358893  
H314     H      0.166540000000     0.547270000000     0.773240000000     0.0488347  
H315     H      0.149520000000     0.001480000000     0.803970000000     0.0482441  
H316     H      0.406710000000     0.993770000000     0.785010000000     0.0707063  
H317     H      0.406360000000     0.551360000000     0.764790000000     0.0471987  
H318     H      0.430120000000     0.549270000000     0.712490000000     0.0444436  
H319     H      0.371820000000     0.969700000000     0.776920000000     0.0723783  
H320     H      0.385730000000     0.972080000000     0.719530000000     0.0534653  
H321     H      0.374400000000     0.562490000000     0.737890000000     0.0509829  
H322     H      0.395510000000     0.527940000000     0.697460000000     0.0622796  
H323     H      0.069290000000     0.871460000000     0.747660000000     0.0813737  
H324     H      0.026490000000     0.870350000000     0.797110000000     0.0511951  
H325     H      0.478710000000     0.899050000000     0.780370000000     0.0634711  
H326     H      0.062870000000     0.841660000000     0.718290000000     0.0697051  
H327     H      0.509270000000     0.865370000000     0.704760000000     0.0352238  
H328     H      0.493370000000     0.843040000000     0.793830000000     0.0507376  
H329     H      0.470270000000     0.871280000000     0.749980000000     0.0597901  
H330     H      0.991960000000     0.648730000000     0.786580000000     0.0828053  
H331     H      0.080140000000     0.632990000000     0.762510000000     0.0634319  
H332     H      0.073820000000     0.590260000000     0.724470000000     0.0448195  
H333     H      0.986650000000     0.633350000000     0.747940000000     0.0598331  
H334     H      0.491240000000     0.590700000000     0.785590000000     0.0330914  
H335     H      0.073810000000     0.649080000000     0.724230000000     0.0473504  
H336     H      0.536530000000     0.606650000000     0.709620000000     0.048769   
H337     H      0.907840000000     0.228470000000     0.478850000000     0.0703864  
H338     H      0.910100000000     0.257680000000     0.036800000000     0.0490906  
H339     H      0.939010000000     0.307690000000     0.030960000000     0.0420843  
H340     H      0.878900000000     0.244240000000     0.451520000000     0.0696146  
H341     H      0.908600000000     0.293290000000     0.448920000000     0.0348126  
H342     H      0.881410000000     0.289230000000     0.041680000000     0.0482007  
H343     H      0.909680000000     0.320620000000     0.002000000000     0.0452459  
H344     H      0.648910000000     0.243910000000     0.475650000000     0.0658082  
H345     H      0.650710000000     0.276210000000     0.031720000000     0.0501649  
H346     H      0.623130000000     0.244290000000     0.070910000000     0.039756   
H347     H      0.679020000000     0.213420000000     0.471790000000     0.0676562  
H348     H      0.653500000000     0.183480000000     0.514290000000     0.0356369  
H349     H      0.680510000000     0.263110000000     0.059510000000     0.0491027  
H350     H      0.652630000000     0.213420000000     0.065970000000     0.0455331  
H351     H      0.772390000000     0.369900000000     0.454080000000     0.077704   
H352     H      0.812700000000     0.375420000000     0.504180000000     0.0528417  
H353     H      0.788320000000     0.408850000000     0.044540000000     0.044717   
H354     H      0.736900000000     0.345560000000     0.459720000000     0.0669731  
H355     H      0.713630000000     0.381850000000     0.997690000000     0.0341211  
H356     H      0.802570000000     0.352780000000     0.038170000000     0.0496742  
H357     H      0.753130000000     0.383850000000     0.046730000000     0.0432225  
H358     H      0.798570000000     0.134920000000     0.056280000000     0.0672192  
H359     H      0.835560000000     0.136090000000     0.004990000000     0.0370648  
H360     H      0.814660000000     0.096210000000     0.471340000000     0.0457508  
H361     H      0.761870000000     0.158460000000     0.055670000000     0.0668488  
H362     H      0.736770000000     0.123740000000     0.516340000000     0.0355603  
H363     H      0.819380000000     0.156040000000     0.471490000000     0.0480809  
H364     H      0.777760000000     0.117410000000     0.463860000000     0.0439651  
H365     H      0.749790000000     0.460310000000     0.365390000000     0.075417   
H366     H      0.716810000000     0.014370000000     0.365780000000     0.048915   
H367     H      0.737790000000     0.045150000000     0.408370000000     0.0473979  
H368     H      0.788710000000     0.460370000000     0.345340000000     0.0695207  
H369     H      0.812820000000     0.494430000000     0.385350000000     0.0338044  
H370     H      0.736910000000     0.047430000000     0.348750000000     0.0476961  
H371     H      0.776990000000     0.048970000000     0.390000000000     0.0429964  
H372     H      0.780760000000     0.464760000000     0.129370000000     0.0666737  
H373     H      0.725800000000     0.998090000000     0.130060000000     0.0498826  
H374     H      0.736310000000     0.048730000000     0.155220000000     0.0485072  
H375     H      0.810770000000     0.474240000000     0.100070000000     0.0680148  
H376     H      0.819610000000     0.525370000000     0.124400000000     0.0363375  
H377     H      0.722060000000     0.028640000000     0.101210000000     0.0616612  
H378     H      0.766780000000     0.058250000000     0.126060000000     0.0616864  
H379     H      0.560620000000     0.196740000000     0.393250000000     0.0781551  
H380     H      0.598940000000     0.245110000000     0.396990000000     0.050695   
H381     H      0.085060000000     0.275100000000     0.352130000000     0.0483314  
H382     H      0.521990000000     0.198090000000     0.413560000000     0.0832905  
H383     H      0.000740000000     0.236770000000     0.375920000000     0.0522173  
H384     H      0.082280000000     0.280380000000     0.412840000000     0.0510763  
H385     H      0.047540000000     0.288300000000     0.368970000000     0.0473504  
H386     H      0.964320000000     0.256920000000     0.123600000000     0.0652538  
H387     H      0.506630000000     0.302190000000     0.128270000000     0.0510815  
H388     H      0.553810000000     0.288570000000     0.161420000000     0.0457286  
H389     H      0.975220000000     0.223270000000     0.100880000000     0.0669496  
H390     H      0.017560000000     0.208860000000     0.137810000000     0.0319497  
H391     H      0.543560000000     0.299710000000     0.105230000000     0.051416   
H392     H      0.562930000000     0.255320000000     0.136990000000     0.0463017  
H393     H      0.640940000000     0.988190000000     0.210510000000     0.0712538  
H394     H      0.635290000000     0.039740000000     0.244360000000     0.0469239  
H395     H      0.614250000000     0.025860000000     0.296640000000     0.0506654  
H396     H      0.676300000000     0.464100000000     0.216880000000     0.0701737  
H397     H      0.657420000000     0.452750000000     0.270790000000     0.0355032  
H398     H      0.666540000000     0.047270000000     0.273240000000     0.0487133  
H399     H      0.649520000000     0.501480000000     0.303970000000     0.0482108  
H400     H      0.906710000000     0.493770000000     0.285010000000     0.0702191  
H401     H      0.906360000000     0.051360000000     0.264790000000     0.0468793  
H402     H      0.930120000000     0.049270000000     0.212490000000     0.0442756  
H403     H      0.871820000000     0.469700000000     0.276920000000     0.0723009  
H404     H      0.885730000000     0.472080000000     0.219530000000     0.0533148  
H405     H      0.874400000000     0.062490000000     0.237890000000     0.0509285  
H406     H      0.895510000000     0.027940000000     0.197460000000     0.061787   
H407     H      0.569290000000     0.371450000000     0.247660000000     0.0813785  
H408     H      0.526490000000     0.370350000000     0.297120000000     0.0508639  
H409     H      0.978710000000     0.399050000000     0.280370000000     0.0632529  
H410     H      0.562870000000     0.341660000000     0.218290000000     0.0697207  
H411     H      0.009270000000     0.365370000000     0.204760000000     0.035089   
H412     H      0.993370000000     0.343040000000     0.293830000000     0.0506777  
H413     H      0.970270000000     0.371280000000     0.249980000000     0.0597269  
H414     H      0.491960000000     0.148730000000     0.286570000000     0.0826131  
H415     H      0.580140000000     0.132990000000     0.262510000000     0.0633961  
H416     H      0.573820000000     0.090260000000     0.224480000000     0.0446123  
H417     H      0.486650000000     0.133350000000     0.247940000000     0.0596541  
H418     H      0.991240000000     0.090690000000     0.285590000000     0.0328973  
H419     H      0.573810000000     0.149080000000     0.224230000000     0.0472859  
H420     H      0.036530000000     0.106650000000     0.209620000000     0.0485206  
H421     H      0.907840000000     0.228470000000     0.978850000000     0.0727699  
H422     H      0.910100000000     0.257680000000     0.536800000000     0.049711   
H423     H      0.939010000000     0.307690000000     0.530960000000     0.0426894  
H424     H      0.878900000000     0.244240000000     0.951520000000     0.0705052  
H425     H      0.908600000000     0.293290000000     0.948920000000     0.036302   
H426     H      0.881410000000     0.289230000000     0.541680000000     0.0471945  
H427     H      0.909680000000     0.320620000000     0.502000000000     0.0471652  
H428     H      0.648910000000     0.243910000000     0.975650000000     0.0648696  
H429     H      0.650710000000     0.276210000000     0.531720000000     0.0519909  
H430     H      0.623130000000     0.244290000000     0.570910000000     0.0396001  
H431     H      0.679020000000     0.213420000000     0.971790000000     0.065945   
H432     H      0.653500000000     0.183480000000     0.014290000000     0.0365077  
H433     H      0.680510000000     0.263110000000     0.559510000000     0.0493805  
H434     H      0.652630000000     0.213420000000     0.565970000000     0.0455501  
H435     H      0.772390000000     0.369900000000     0.954080000000     0.0795934  
H436     H      0.812700000000     0.375420000000     0.004170000000     0.051946   
H437     H      0.788320000000     0.408850000000     0.544540000000     0.0451192  
H438     H      0.736900000000     0.345560000000     0.959720000000     0.0683712  
H439     H      0.713630000000     0.381850000000     0.497690000000     0.0321154  
H440     H      0.802570000000     0.352780000000     0.538170000000     0.0484632  
H441     H      0.753130000000     0.383850000000     0.546730000000     0.0449216  
H442     H      0.798570000000     0.134920000000     0.556270000000     0.0676381  
H443     H      0.835560000000     0.136090000000     0.504990000000     0.0467867  
H444     H      0.814660000000     0.096210000000     0.971340000000     0.0481864  
H445     H      0.761870000000     0.158460000000     0.555670000000     0.0669163  
H446     H      0.736770000000     0.123740000000     0.016340000000     0.0334248  
H447     H      0.819380000000     0.156040000000     0.971490000000     0.0461779  
H448     H      0.777760000000     0.117410000000     0.963860000000     0.045421   
H449     H      0.749790000000     0.460310000000     0.865390000000     0.0755228  
H450     H      0.716810000000     0.014370000000     0.865780000000     0.0492484  
H451     H      0.737790000000     0.045150000000     0.908370000000     0.0484268  
H452     H      0.788710000000     0.460370000000     0.845340000000     0.0695711  
H453     H      0.812820000000     0.494430000000     0.885340000000     0.03437    
H454     H      0.736910000000     0.047430000000     0.848750000000     0.0478796  
H455     H      0.776990000000     0.048970000000     0.890000000000     0.0435981  
H456     H      0.780760000000     0.464760000000     0.629370000000     0.066786   
H457     H      0.725800000000     0.998090000000     0.630060000000     0.050128   
H458     H      0.736310000000     0.048730000000     0.655220000000     0.0485795  
H459     H      0.810770000000     0.474240000000     0.600070000000     0.068284   
H460     H      0.819610000000     0.525370000000     0.624400000000     0.0365391  
H461     H      0.722060000000     0.028640000000     0.601210000000     0.0619554  
H462     H      0.766780000000     0.058250000000     0.626060000000     0.0617233  
H463     H      0.560620000000     0.196740000000     0.893250000000     0.0784878  
H464     H      0.598940000000     0.245110000000     0.896990000000     0.0510603  
H465     H      0.085060000000     0.275100000000     0.852130000000     0.0484779  
H466     H      0.521990000000     0.198090000000     0.913560000000     0.0839706  
H467     H      0.000740000000     0.236770000000     0.875920000000     0.0523563  
H468     H      0.082280000000     0.280380000000     0.912840000000     0.0519293  
H469     H      0.047540000000     0.288300000000     0.868970000000     0.0476592  
H470     H      0.964320000000     0.256920000000     0.623600000000     0.0654558  
H471     H      0.506630000000     0.302190000000     0.628270000000     0.051333   
H472     H      0.553810000000     0.288570000000     0.661420000000     0.0457979  
H473     H      0.975220000000     0.223270000000     0.600880000000     0.0674397  
H474     H      0.017560000000     0.208860000000     0.637810000000     0.0321029  
H475     H      0.543560000000     0.299710000000     0.605230000000     0.051753   
H476     H      0.562930000000     0.255320000000     0.636990000000     0.0463393  
H477     H      0.640940000000     0.988190000000     0.710510000000     0.071386   
H478     H      0.635290000000     0.039740000000     0.744360000000     0.0469669  
H479     H      0.614250000000     0.025860000000     0.796640000000     0.0508814  
H480     H      0.676300000000     0.464100000000     0.716880000000     0.0702553  
H481     H      0.657420000000     0.452750000000     0.770790000000     0.0355699  
H482     H      0.666540000000     0.047270000000     0.773240000000     0.0487766  
H483     H      0.649520000000     0.501480000000     0.803970000000     0.0484231  
H484     H      0.906710000000     0.493770000000     0.785010000000     0.0704365  
H485     H      0.906360000000     0.051360000000     0.764790000000     0.0469981  
H486     H      0.930120000000     0.049270000000     0.712490000000     0.0443926  
H487     H      0.871820000000     0.469700000000     0.776920000000     0.0724203  
H488     H      0.885730000000     0.472080000000     0.719530000000     0.0533419  
H489     H      0.874400000000     0.062490000000     0.737890000000     0.050984   
H490     H      0.895510000000     0.027940000000     0.697460000000     0.0619032  
H491     H      0.569290000000     0.371450000000     0.747660000000     0.0814061  
H492     H      0.526490000000     0.370350000000     0.797110000000     0.0511178  
H493     H      0.978710000000     0.399050000000     0.780370000000     0.0634188  
H494     H      0.562870000000     0.341660000000     0.718290000000     0.0697377  
H495     H      0.009270000000     0.365370000000     0.704760000000     0.0351696  
H496     H      0.993370000000     0.343040000000     0.793830000000     0.0508495  
H497     H      0.970270000000     0.371280000000     0.749980000000     0.0597643  
H498     H      0.491960000000     0.148730000000     0.786580000000     0.0826502  
H499     H      0.580140000000     0.132990000000     0.762510000000     0.0634155  
H500     H      0.573820000000     0.090260000000     0.724470000000     0.0446941  
H501     H      0.486650000000     0.133350000000     0.747940000000     0.0596824  
H502     H      0.991240000000     0.090690000000     0.785590000000     0.0330651  
H503     H      0.573810000000     0.149080000000     0.724230000000     0.0473309  
H504     H      0.036530000000     0.106650000000     0.709620000000     0.0486612  
H505     H      0.907840000000     0.728470000000     0.478850000000     0.0704126  
H506     H      0.910100000000     0.757680000000     0.036800000000     0.0491001  
H507     H      0.939010000000     0.807690000000     0.030960000000     0.0421198  
H508     H      0.878900000000     0.744240000000     0.451520000000     0.0696292  
H509     H      0.908600000000     0.793290000000     0.448920000000     0.0348262  
H510     H      0.881410000000     0.789230000000     0.041680000000     0.0482093  
H511     H      0.909680000000     0.820620000000     0.002000000000     0.0452838  
H512     H      0.648910000000     0.743910000000     0.475650000000     0.0658057  
H513     H      0.650710000000     0.776210000000     0.031720000000     0.0501914  
H514     H      0.623130000000     0.744290000000     0.070910000000     0.0397613  
H515     H      0.679020000000     0.713420000000     0.471790000000     0.0676629  
H516     H      0.653500000000     0.683480000000     0.514290000000     0.0356834  
H517     H      0.680510000000     0.763100000000     0.059510000000     0.0491252  
H518     H      0.652630000000     0.713420000000     0.065970000000     0.0455444  
H519     H      0.772390000000     0.869900000000     0.454080000000     0.0777148  
H520     H      0.812700000000     0.875420000000     0.504180000000     0.0528662  
H521     H      0.788320000000     0.908850000000     0.044540000000     0.0447974  
H522     H      0.736900000000     0.845560000000     0.459720000000     0.0669721  
H523     H      0.713630000000     0.881850000000     0.997690000000     0.0341962  
H524     H      0.802570000000     0.852780000000     0.038170000000     0.049683   
H525     H      0.753130000000     0.883850000000     0.046730000000     0.0432901  
H526     H      0.798570000000     0.634920000000     0.056280000000     0.0672661  
H527     H      0.835560000000     0.636090000000     0.004990000000     0.0371267  
H528     H      0.814660000000     0.596210000000     0.471340000000     0.0458926  
H529     H      0.761870000000     0.658460000000     0.055670000000     0.0668539  
H530     H      0.736770000000     0.623740000000     0.516340000000     0.0355782  
H531     H      0.819380000000     0.656040000000     0.471490000000     0.0481158  
H532     H      0.777760000000     0.617410000000     0.463860000000     0.0440025  
H533     H      0.749790000000     0.960310000000     0.365390000000     0.0755708  
H534     H      0.716810000000     0.514370000000     0.365780000000     0.0492141  
H535     H      0.737790000000     0.545150000000     0.408370000000     0.0474166  
H536     H      0.788710000000     0.960370000000     0.345340000000     0.0694798  
H537     H      0.812820000000     0.994430000000     0.385350000000     0.0341607  
H538     H      0.736910000000     0.547430000000     0.348750000000     0.0477016  
H539     H      0.776990000000     0.548970000000     0.390000000000     0.0431563  
H540     H      0.780760000000     0.964760000000     0.129370000000     0.066345   
H541     H      0.725800000000     0.498090000000     0.130060000000     0.048335   
H542     H      0.736310000000     0.548730000000     0.155220000000     0.0487331  
H543     H      0.810770000000     0.974240000000     0.100070000000     0.0677038  
H544     H      0.819610000000     0.025370000000     0.124400000000     0.0365202  
H545     H      0.722060000000     0.528640000000     0.101210000000     0.0614319  
H546     H      0.766780000000     0.558250000000     0.126060000000     0.0617562  
H547     H      0.560620000000     0.696740000000     0.393250000000     0.0781761  
H548     H      0.598940000000     0.745110000000     0.396990000000     0.0506988  
H549     H      0.085060000000     0.775100000000     0.352130000000     0.0483159  
H550     H      0.521990000000     0.698090000000     0.413560000000     0.0833269  
H551     H      0.000740000000     0.736770000000     0.375920000000     0.0522233  
H552     H      0.082280000000     0.780390000000     0.412840000000     0.0510935  
H553     H      0.047540000000     0.788300000000     0.368970000000     0.0473419  
H554     H      0.964320000000     0.756920000000     0.123600000000     0.0652617  
H555     H      0.506630000000     0.802180000000     0.128270000000     0.0511302  
H556     H      0.553810000000     0.788580000000     0.161420000000     0.0457173  
H557     H      0.975220000000     0.723270000000     0.100880000000     0.0669764  
H558     H      0.017560000000     0.708860000000     0.137810000000     0.0319752  
H559     H      0.543560000000     0.799710000000     0.105230000000     0.0514663  
H560     H      0.562930000000     0.755320000000     0.136990000000     0.0462985  
H561     H      0.640940000000     0.488190000000     0.210510000000     0.0710557  
H562     H      0.635290000000     0.539740000000     0.244360000000     0.0472656  
H563     H      0.614250000000     0.525860000000     0.296640000000     0.0507298  
H564     H      0.676300000000     0.964100000000     0.216880000000     0.0701159  
H565     H      0.657420000000     0.952750000000     0.270790000000     0.0358247  
H566     H      0.666540000000     0.547270000000     0.273240000000     0.0487701  
H567     H      0.649520000000     0.001480000000     0.303970000000     0.0480356  
H568     H      0.906710000000     0.993770000000     0.285010000000     0.0704991  
H569     H      0.906360000000     0.551360000000     0.264790000000     0.0470887  
H570     H      0.930120000000     0.549270000000     0.212490000000     0.0443404  
H571     H      0.871820000000     0.969700000000     0.276920000000     0.0722634  
H572     H      0.885730000000     0.972080000000     0.219530000000     0.0534416  
H573     H      0.874400000000     0.562490000000     0.237890000000     0.0509315  
H574     H      0.895510000000     0.527940000000     0.197460000000     0.0621663  
H575     H      0.569290000000     0.871460000000     0.247660000000     0.0813733  
H576     H      0.526490000000     0.870350000000     0.297120000000     0.0509092  
H577     H      0.978710000000     0.899050000000     0.280370000000     0.0632873  
H578     H      0.562870000000     0.841660000000     0.218290000000     0.0697173  
H579     H      0.009270000000     0.865370000000     0.204760000000     0.0351183  
H580     H      0.993370000000     0.843040000000     0.293830000000     0.0506967  
H581     H      0.970270000000     0.871280000000     0.249980000000     0.0597366  
H582     H      0.491960000000     0.648730000000     0.286570000000     0.082632   
H583     H      0.580140000000     0.632990000000     0.262510000000     0.0634097  
H584     H      0.573820000000     0.590260000000     0.224480000000     0.0447394  
H585     H      0.486650000000     0.633350000000     0.247940000000     0.0596847  
H586     H      0.991240000000     0.590700000000     0.285590000000     0.0330058  
H587     H      0.573810000000     0.649080000000     0.224230000000     0.0473077  
H588     H      0.036530000000     0.606650000000     0.209620000000     0.0486076  
H589     H      0.907840000000     0.728470000000     0.978850000000     0.0727982  
H590     H      0.910100000000     0.757680000000     0.536800000000     0.0497213  
H591     H      0.939010000000     0.807690000000     0.530960000000     0.0427245  
H592     H      0.878900000000     0.744240000000     0.951520000000     0.0705205  
H593     H      0.908600000000     0.793290000000     0.948920000000     0.0363146  
H594     H      0.881410000000     0.789230000000     0.541680000000     0.0472025  
H595     H      0.909680000000     0.820620000000     0.502000000000     0.0472024  
H596     H      0.648910000000     0.743910000000     0.975650000000     0.0648639  
H597     H      0.650710000000     0.776210000000     0.531720000000     0.0520176  
H598     H      0.623130000000     0.744290000000     0.570910000000     0.0396052  
H599     H      0.679020000000     0.713420000000     0.971790000000     0.0659495  
H600     H      0.653500000000     0.683480000000     0.014290000000     0.0365515  
H601     H      0.680510000000     0.763100000000     0.559510000000     0.0494028  
H602     H      0.652630000000     0.713420000000     0.565970000000     0.0455616  
H603     H      0.772390000000     0.869900000000     0.954080000000     0.0796027  
H604     H      0.812700000000     0.875420000000     0.004170000000     0.0519717  
H605     H      0.788320000000     0.908850000000     0.544540000000     0.0451999  
H606     H      0.736900000000     0.845560000000     0.959720000000     0.06837    
H607     H      0.713630000000     0.881850000000     0.497690000000     0.0321927  
H608     H      0.802570000000     0.852780000000     0.538170000000     0.0484722  
H609     H      0.753130000000     0.883850000000     0.546730000000     0.0449881  
H610     H      0.798570000000     0.634920000000     0.556270000000     0.067686   
H611     H      0.835560000000     0.636090000000     0.504990000000     0.0468665  
H612     H      0.814660000000     0.596210000000     0.971340000000     0.0483365  
H613     H      0.761870000000     0.658460000000     0.555670000000     0.0669215  
H614     H      0.736770000000     0.623740000000     0.016340000000     0.0334388  
H615     H      0.819380000000     0.656040000000     0.971490000000     0.0462088  
H616     H      0.777760000000     0.617410000000     0.963860000000     0.045463   
H617     H      0.749790000000     0.960310000000     0.865390000000     0.0756763  
H618     H      0.716810000000     0.514370000000     0.865780000000     0.0495505  
H619     H      0.737790000000     0.545150000000     0.908370000000     0.0484486  
H620     H      0.788710000000     0.960370000000     0.845340000000     0.06953    
H621     H      0.812820000000     0.994430000000     0.885340000000     0.0347238  
H622     H      0.736910000000     0.547430000000     0.848750000000     0.0478857  
H623     H      0.776990000000     0.548970000000     0.890000000000     0.0437598  
H624     H      0.780760000000     0.964760000000     0.629370000000     0.0664557  
H625     H      0.725800000000     0.498090000000     0.630060000000     0.0485755  
H626     H      0.736310000000     0.548730000000     0.655220000000     0.0488069  
H627     H      0.810770000000     0.974240000000     0.600070000000     0.0679707  
H628     H      0.819610000000     0.025370000000     0.624400000000     0.0367218  
H629     H      0.722060000000     0.528640000000     0.601210000000     0.0617262  
H630     H      0.766780000000     0.558250000000     0.626060000000     0.0617934  
H631     H      0.560620000000     0.696740000000     0.893250000000     0.0785096  
H632     H      0.598940000000     0.745110000000     0.896990000000     0.0510642  
H633     H      0.085060000000     0.775100000000     0.852130000000     0.0484623  
H634     H      0.521990000000     0.698090000000     0.913560000000     0.0840081  
H635     H      0.000740000000     0.736770000000     0.875920000000     0.0523623  
H636     H      0.082280000000     0.780390000000     0.912840000000     0.0519461  
H637     H      0.047540000000     0.788300000000     0.868970000000     0.0476503  
H638     H      0.964320000000     0.756920000000     0.623600000000     0.0654638  
H639     H      0.506630000000     0.802180000000     0.628270000000     0.0513815  
H640     H      0.553810000000     0.788580000000     0.661420000000     0.0457865  
H641     H      0.975220000000     0.723270000000     0.600880000000     0.0674672  
H642     H      0.017560000000     0.708860000000     0.637810000000     0.0321289  
H643     H      0.543560000000     0.799710000000     0.605230000000     0.051803   
H644     H      0.562930000000     0.755320000000     0.636990000000     0.0463361  
H645     H      0.640940000000     0.488190000000     0.710510000000     0.0711887  
H646     H      0.635290000000     0.539740000000     0.744360000000     0.0473102  
H647     H      0.614250000000     0.525860000000     0.796640000000     0.0509469  
H648     H      0.676300000000     0.964100000000     0.716880000000     0.0701972  
H649     H      0.657420000000     0.952750000000     0.770790000000     0.0358919  
H650     H      0.666540000000     0.547270000000     0.773240000000     0.0488337  
H651     H      0.649520000000     0.001480000000     0.803970000000     0.0482453  
H652     H      0.906710000000     0.993770000000     0.785010000000     0.0707154  
H653     H      0.906360000000     0.551360000000     0.764790000000     0.0472085  
H654     H      0.930120000000     0.549270000000     0.712490000000     0.0444581  
H655     H      0.871820000000     0.969700000000     0.776920000000     0.0723822  
H656     H      0.885730000000     0.972080000000     0.719530000000     0.0534687  
H657     H      0.874400000000     0.562490000000     0.737890000000     0.0509871  
H658     H      0.895510000000     0.527940000000     0.697460000000     0.0622852  
H659     H      0.569290000000     0.871460000000     0.747660000000     0.0814008  
H660     H      0.526490000000     0.870350000000     0.797110000000     0.0511627  
H661     H      0.978710000000     0.899050000000     0.780370000000     0.0634529  
H662     H      0.562870000000     0.841660000000     0.718290000000     0.0697342  
H663     H      0.009270000000     0.865370000000     0.704760000000     0.0351988  
H664     H      0.993370000000     0.843040000000     0.793830000000     0.0508682  
H665     H      0.970270000000     0.871280000000     0.749980000000     0.0597739  
H666     H      0.491960000000     0.648730000000     0.786580000000     0.0826693  
H667     H      0.580140000000     0.632990000000     0.762510000000     0.0634292  
H668     H      0.573820000000     0.590260000000     0.724470000000     0.0448221  
H669     H      0.486650000000     0.633350000000     0.747940000000     0.0597131  
H670     H      0.991240000000     0.590700000000     0.785590000000     0.0331745  
H671     H      0.573810000000     0.649080000000     0.724230000000     0.0473529  
H672     H      0.036530000000     0.606650000000     0.709620000000     0.048749   
N1       N      0.441160000000     0.284700000000     0.486260000000    -0.174174   
N2       N      0.377730000000     0.263420000000     0.498400000000    -0.159265   
N3       N      0.119780000000     0.218330000000     0.028030000000    -0.172549   
N4       N      0.182180000000     0.241530000000     0.013610000000    -0.163409   
N5       N      0.255850000000     0.409560000000     0.504570000000    -0.172333   
N6       N      0.271570000000     0.346330000000     0.497510000000    -0.159057   
N7       N      0.278860000000     0.095920000000     0.008310000000    -0.176328   
N8       N      0.291670000000     0.160060000000     0.014270000000    -0.164045   
N9       N      0.268730000000     0.504460000000     0.409490000000    -0.171837   
N10      N      0.261580000000     0.503230000000     0.344000000000    -0.159906   
N11      N      0.281260000000     0.022550000000     0.157310000000    -0.174391   
N12      N      0.265410000000     0.000050000000     0.098100000000    -0.15918    
N13      N      0.545120000000     0.242580000000     0.350890000000    -0.171329   
N14      N      0.552020000000     0.239420000000     0.416520000000    -0.155034   
N15      N      0.019580000000     0.250560000000     0.163920000000    -0.173235   
N16      N      0.009210000000     0.261750000000     0.099850000000    -0.160435   
N17      N      0.116970000000     0.483350000000     0.269830000000    -0.17378    
N18      N      0.174060000000     0.506880000000     0.243660000000    -0.161038   
N19      N      0.426980000000     0.001030000000     0.226090000000    -0.171719   
N20      N      0.370080000000     0.016690000000     0.258460000000    -0.159584   
N21      N      0.011020000000     0.400080000000     0.240070000000    -0.168423   
N22      N      0.030570000000     0.340470000000     0.258100000000    -0.160706   
N23      N      0.532210000000     0.086230000000     0.254640000000    -0.174205   
N24      N      0.533320000000     0.153110000000     0.255800000000    -0.150989   
N25      N      0.441160000000     0.284700000000     0.986260000000    -0.169516   
N26      N      0.377730000000     0.263420000000     0.998400000000    -0.14822    
N27      N      0.119780000000     0.218330000000     0.528030000000    -0.173808   
N28      N      0.182180000000     0.241530000000     0.513610000000    -0.159483   
N29      N      0.255850000000     0.409560000000     0.004570000000    -0.175559   
N30      N      0.271570000000     0.346330000000     0.997510000000    -0.147544   
N31      N      0.278860000000     0.095920000000     0.508310000000    -0.172776   
N32      N      0.291670000000     0.160060000000     0.514270000000    -0.160044   
N33      N      0.268730000000     0.504460000000     0.909490000000    -0.171174   
N34      N      0.261580000000     0.503230000000     0.844000000000    -0.159944   
N35      N      0.281260000000     0.022550000000     0.657320000000    -0.174464   
N36      N      0.265410000000     0.000050000000     0.598100000000    -0.159228   
N37      N      0.545120000000     0.242580000000     0.850890000000    -0.171337   
N38      N      0.552020000000     0.239420000000     0.916520000000    -0.154423   
N39      N      0.019580000000     0.250560000000     0.663930000000    -0.1733     
N40      N      0.009210000000     0.261750000000     0.599850000000    -0.160492   
N41      N      0.116970000000     0.483350000000     0.769830000000    -0.173688   
N42      N      0.174060000000     0.506880000000     0.743660000000    -0.161022   
N43      N      0.426980000000     0.001030000000     0.726090000000    -0.171669   
N44      N      0.370080000000     0.016690000000     0.758460000000    -0.159543   
N45      N      0.011020000000     0.400080000000     0.740070000000    -0.168371   
N46      N      0.030570000000     0.340470000000     0.758100000000    -0.16069    
N47      N      0.532210000000     0.086230000000     0.754640000000    -0.174164   
N48      N      0.533320000000     0.153110000000     0.755800000000    -0.151003   
N49      N      0.441160000000     0.784700000000     0.486260000000    -0.174161   
N50      N      0.377730000000     0.763420000000     0.498400000000    -0.159261   
N51      N      0.119780000000     0.718330000000     0.028030000000    -0.172549   
N52      N      0.182180000000     0.741520000000     0.013610000000    -0.163404   
N53      N      0.255850000000     0.909560000000     0.504570000000    -0.172278   
N54      N      0.271570000000     0.846330000000     0.497510000000    -0.159121   
N55      N      0.278860000000     0.595920000000     0.008310000000    -0.176286   
N56      N      0.291670000000     0.660060000000     0.014270000000    -0.164037   
N57      N      0.268730000000     0.004460000000     0.409490000000    -0.172306   
N58      N      0.261580000000     0.003230000000     0.344000000000    -0.160394   
N59      N      0.281260000000     0.522550000000     0.157310000000    -0.174764   
N60      N      0.265410000000     0.500050000000     0.098100000000    -0.158696   
N61      N      0.545120000000     0.742580000000     0.350890000000    -0.171345   
N62      N      0.552020000000     0.739420000000     0.416520000000    -0.155029   
N63      N      0.019580000000     0.750560000000     0.163920000000    -0.173242   
N64      N      0.009210000000     0.761750000000     0.099850000000    -0.16038    
N65      N      0.116970000000     0.983350000000     0.269830000000    -0.172987   
N66      N      0.174060000000     0.006880000000     0.243660000000    -0.161636   
N67      N      0.426980000000     0.501030000000     0.226090000000    -0.171169   
N68      N      0.370080000000     0.516690000000     0.258460000000    -0.15911    
N69      N      0.011020000000     0.900080000000     0.240070000000    -0.168437   
N70      N      0.030570000000     0.840470000000     0.258100000000    -0.160703   
N71      N      0.532210000000     0.586230000000     0.254640000000    -0.174103   
N72      N      0.533320000000     0.653120000000     0.255800000000    -0.15108    
N73      N      0.441160000000     0.784700000000     0.986260000000    -0.169503   
N74      N      0.377730000000     0.763420000000     0.998400000000    -0.148213   
N75      N      0.119780000000     0.718330000000     0.528030000000    -0.17381    
N76      N      0.182180000000     0.741520000000     0.513610000000    -0.159474   
N77      N      0.255850000000     0.909560000000     0.004570000000    -0.175503   
N78      N      0.271570000000     0.846330000000     0.997510000000    -0.147609   
N79      N      0.278860000000     0.595920000000     0.508310000000    -0.172727   
N80      N      0.291670000000     0.660060000000     0.514270000000    -0.160027   
N81      N      0.268730000000     0.004460000000     0.909490000000    -0.171647   
N82      N      0.261580000000     0.003230000000     0.844000000000    -0.160433   
N83      N      0.281260000000     0.522550000000     0.657320000000    -0.174839   
N84      N      0.265410000000     0.500050000000     0.598100000000    -0.15874    
N85      N      0.545120000000     0.742580000000     0.850890000000    -0.171353   
N86      N      0.552020000000     0.739420000000     0.916520000000    -0.154418   
N87      N      0.019580000000     0.750560000000     0.663930000000    -0.173307   
N88      N      0.009210000000     0.761750000000     0.599850000000    -0.160437   
N89      N      0.116970000000     0.983350000000     0.769830000000    -0.172894   
N90      N      0.174060000000     0.006880000000     0.743660000000    -0.161623   
N91      N      0.426980000000     0.501030000000     0.726090000000    -0.171116   
N92      N      0.370080000000     0.516690000000     0.758460000000    -0.159067   
N93      N      0.011020000000     0.900080000000     0.740070000000    -0.168386   
N94      N      0.030570000000     0.840470000000     0.758100000000    -0.160686   
N95      N      0.532210000000     0.586230000000     0.754640000000    -0.174062   
N96      N      0.533320000000     0.653120000000     0.755800000000    -0.151095   
N97      N      0.941160000000     0.284700000000     0.486260000000    -0.174165   
N98      N      0.877730000000     0.263420000000     0.498400000000    -0.159274   
N99      N      0.619780000000     0.218330000000     0.028030000000    -0.172549   
N100     N      0.682180000000     0.241530000000     0.013610000000    -0.163407   
N101     N      0.755850000000     0.409560000000     0.504570000000    -0.172333   
N102     N      0.771570000000     0.346330000000     0.497510000000    -0.159049   
N103     N      0.778860000000     0.095920000000     0.008310000000    -0.176328   
N104     N      0.791670000000     0.160060000000     0.014270000000    -0.164044   
N105     N      0.768730000000     0.504460000000     0.409490000000    -0.171836   
N106     N      0.761580000000     0.503230000000     0.344000000000    -0.159905   
N107     N      0.781260000000     0.022550000000     0.157310000000    -0.174384   
N108     N      0.765410000000     0.000050000000     0.098100000000    -0.1592     
N109     N      0.045120000000     0.242580000000     0.350890000000    -0.171332   
N110     N      0.052020000000     0.239420000000     0.416520000000    -0.155036   
N111     N      0.519590000000     0.250560000000     0.163920000000    -0.173275   
N112     N      0.509210000000     0.261750000000     0.099850000000    -0.160373   
N113     N      0.616970000000     0.483350000000     0.269830000000    -0.17378    
N114     N      0.674060000000     0.506880000000     0.243660000000    -0.161048   
N115     N      0.926980000000     0.001030000000     0.226090000000    -0.171711   
N116     N      0.870080000000     0.016690000000     0.258460000000    -0.159582   
N117     N      0.511020000000     0.400080000000     0.240070000000    -0.168345   
N118     N      0.530570000000     0.340470000000     0.258100000000    -0.16072    
N119     N      0.032210000000     0.086230000000     0.254640000000    -0.174209   
N120     N      0.033320000000     0.153110000000     0.255800000000    -0.150966   
N121     N      0.941160000000     0.284700000000     0.986260000000    -0.169507   
N122     N      0.877730000000     0.263420000000     0.998400000000    -0.148229   
N123     N      0.619780000000     0.218330000000     0.528030000000    -0.173808   
N124     N      0.682180000000     0.241530000000     0.513610000000    -0.159481   
N125     N      0.755850000000     0.409560000000     0.004570000000    -0.175559   
N126     N      0.771570000000     0.346330000000     0.997510000000    -0.147536   
N127     N      0.778860000000     0.095920000000     0.508310000000    -0.172776   
N128     N      0.791670000000     0.160060000000     0.514270000000    -0.160042   
N129     N      0.768730000000     0.504460000000     0.909490000000    -0.171173   
N130     N      0.761580000000     0.503230000000     0.844000000000    -0.159943   
N131     N      0.781260000000     0.022550000000     0.657320000000    -0.174458   
N132     N      0.765410000000     0.000050000000     0.598100000000    -0.159248   
N133     N      0.045120000000     0.242580000000     0.850890000000    -0.171339   
N134     N      0.052020000000     0.239420000000     0.916520000000    -0.154425   
N135     N      0.519590000000     0.250560000000     0.663930000000    -0.17334    
N136     N      0.509210000000     0.261750000000     0.599850000000    -0.16043    
N137     N      0.616970000000     0.483350000000     0.769830000000    -0.173688   
N138     N      0.674060000000     0.506880000000     0.743660000000    -0.161032   
N139     N      0.926980000000     0.001030000000     0.726090000000    -0.171661   
N140     N      0.870080000000     0.016690000000     0.758460000000    -0.15954    
N141     N      0.511020000000     0.400080000000     0.740070000000    -0.168293   
N142     N      0.530570000000     0.340470000000     0.758100000000    -0.160703   
N143     N      0.032210000000     0.086230000000     0.754640000000    -0.174169   
N144     N      0.033320000000     0.153110000000     0.755800000000    -0.150981   
N145     N      0.941160000000     0.784700000000     0.486260000000    -0.174152   
N146     N      0.877730000000     0.763420000000     0.498400000000    -0.15927    
N147     N      0.619780000000     0.718330000000     0.028030000000    -0.172549   
N148     N      0.682180000000     0.741520000000     0.013610000000    -0.163403   
N149     N      0.755850000000     0.909560000000     0.504570000000    -0.172278   
N150     N      0.771570000000     0.846330000000     0.497510000000    -0.159113   
N151     N      0.778860000000     0.595920000000     0.008310000000    -0.176285   
N152     N      0.791670000000     0.660060000000     0.014270000000    -0.164035   
N153     N      0.768730000000     0.004460000000     0.409490000000    -0.172306   
N154     N      0.761580000000     0.003230000000     0.344000000000    -0.160393   
N155     N      0.781260000000     0.522550000000     0.157310000000    -0.174758   
N156     N      0.765410000000     0.500050000000     0.098100000000    -0.158716   
N157     N      0.045120000000     0.742580000000     0.350890000000    -0.171347   
N158     N      0.052020000000     0.739420000000     0.416520000000    -0.155031   
N159     N      0.519590000000     0.750560000000     0.163920000000    -0.173282   
N160     N      0.509210000000     0.761750000000     0.099850000000    -0.160319   
N161     N      0.616970000000     0.983350000000     0.269830000000    -0.172987   
N162     N      0.674060000000     0.006880000000     0.243660000000    -0.161647   
N163     N      0.926980000000     0.501030000000     0.226090000000    -0.171161   
N164     N      0.870080000000     0.516690000000     0.258460000000    -0.159108   
N165     N      0.511020000000     0.900080000000     0.240070000000    -0.168359   
N166     N      0.530570000000     0.840470000000     0.258100000000    -0.160716   
N167     N      0.032210000000     0.586230000000     0.254640000000    -0.174107   
N168     N      0.033320000000     0.653120000000     0.255800000000    -0.151057   
N169     N      0.941160000000     0.784700000000     0.986260000000    -0.169494   
N170     N      0.877730000000     0.763420000000     0.998400000000    -0.148221   
N171     N      0.619780000000     0.718330000000     0.528030000000    -0.173811   
N172     N      0.682180000000     0.741520000000     0.513610000000    -0.159472   
N173     N      0.755850000000     0.909560000000     0.004570000000    -0.175503   
N174     N      0.771570000000     0.846330000000     0.997510000000    -0.147602   
N175     N      0.778860000000     0.595920000000     0.508310000000    -0.172726   
N176     N      0.791670000000     0.660060000000     0.514270000000    -0.160026   
N177     N      0.768730000000     0.004460000000     0.909490000000    -0.171647   
N178     N      0.761580000000     0.003230000000     0.844000000000    -0.160432   
N179     N      0.781260000000     0.522550000000     0.657320000000    -0.174833   
N180     N      0.765410000000     0.500050000000     0.598100000000    -0.15876    
N181     N      0.045120000000     0.742580000000     0.850890000000    -0.171355   
N182     N      0.052020000000     0.739420000000     0.916520000000    -0.15442    
N183     N      0.519590000000     0.750560000000     0.663930000000    -0.173347   
N184     N      0.509210000000     0.761750000000     0.599850000000    -0.160376   
N185     N      0.616970000000     0.983350000000     0.769830000000    -0.172894   
N186     N      0.674060000000     0.006880000000     0.743660000000    -0.161633   
N187     N      0.926980000000     0.501030000000     0.726090000000    -0.171108   
N188     N      0.870080000000     0.516690000000     0.758460000000    -0.159065   
N189     N      0.511020000000     0.900080000000     0.740070000000    -0.168308   
N190     N      0.530570000000     0.840470000000     0.758100000000    -0.160699   
N191     N      0.032210000000     0.586230000000     0.754640000000    -0.174067   
N192     N      0.033320000000     0.653120000000     0.755800000000    -0.151072   
O1       O      0.536740000000     0.040940000000     0.226570000000    -0.399954   
O2       O      0.521630000000     0.448000000000     0.218260000000    -0.365467   
O3       O      0.480840000000     0.502870000000     0.211670000000    -0.383847   
O4       O      0.076230000000     0.986010000000     0.233270000000    -0.380734   
O5       O      0.063610000000     0.989150000000     0.284180000000    -0.390104   
O6       O      0.467660000000     0.494790000000     0.261910000000    -0.391179   
O7       O      0.011980000000     0.444820000000     0.269550000000    -0.387836   
O8       O      0.018170000000     0.039010000000     0.275790000000    -0.389004   
O9       O      0.505780000000     0.199260000000     0.259600000000    -0.38326    
O10      O      0.504770000000     0.293520000000     0.263900000000    -0.394288   
O11      O      0.498680000000     0.247670000000     0.213820000000    -0.373903   
O12      O      0.511780000000     0.243640000000     0.307970000000    -0.38143    
O13      O      0.065830000000     0.247860000000     0.301220000000    -0.389366   
O14      O      0.052820000000     0.248620000000     0.206840000000    -0.398014   
O15      O      0.058320000000     0.294690000000     0.253320000000    -0.395992   
O16      O      0.060000000000     0.200180000000     0.252970000000    -0.389126   
O17      O      0.271810000000     0.043300000000     0.205740000000    -0.391776   
O18      O      0.266590000000     0.034070000000     0.300360000000    -0.392668   
O19      O      0.320020000000     0.041440000000     0.255160000000    -0.386324   
O20      O      0.220520000000     0.035830000000     0.251090000000    -0.393634   
O21      O      0.225000000000     0.484800000000     0.241610000000    -0.397412   
O22      O      0.322480000000     0.489450000000     0.254560000000    -0.394193   
O23      O      0.268420000000     0.482270000000     0.295080000000    -0.394035   
O24      O      0.280890000000     0.492110000000     0.201300000000    -0.381291   
O25      O      0.245780000000     0.052900000000     0.007460000000    -0.378656   
O26      O      0.234210000000     0.458840000000     0.999690000000    -0.356996   
O27      O      0.238790000000     0.503670000000     0.050950000000    -0.384224   
O28      O      0.241380000000     0.009790000000     0.455920000000    -0.386454   
O29      O      0.294610000000     0.997960000000     0.456610000000    -0.378263   
O30      O      0.293280000000     0.499570000000     0.051590000000    -0.391862   
O31      O      0.288140000000     0.452760000000     0.505630000000    -0.390509   
O32      O      0.299860000000     0.046690000000     0.502940000000    -0.39239    
O33      O      0.008550000000     0.232700000000     0.054560000000    -0.393685   
O34      O      0.030390000000     0.221960000000     0.462660000000    -0.382817   
O35      O      0.065160000000     0.210530000000     0.519290000000    -0.375955   
O36      O      0.475190000000     0.243730000000     0.996200000000    -0.379587   
O37      O      0.495210000000     0.292290000000     0.997110000000    -0.381039   
O38      O      0.085280000000     0.259040000000     0.518980000000    -0.398468   
O39      O      0.551370000000     0.269960000000     0.461080000000    -0.386592   
O40      O      0.530480000000     0.280350000000     0.053810000000    -0.394205   
O41      O      0.284900000000     0.208570000000     0.035890000000    -0.389535   
O42      O      0.278680000000     0.302520000000     0.027170000000    -0.392125   
O43      O      0.232320000000     0.252670000000     0.035080000000    -0.391754   
O44      O      0.331110000000     0.259740000000     0.028120000000    -0.388851   
O45      O      0.327120000000     0.256970000000     0.475990000000    -0.390316   
O46      O      0.229140000000     0.242350000000     0.483920000000    -0.390224   
O47      O      0.269650000000     0.297160000000     0.475840000000    -0.386109   
O48      O      0.286870000000     0.203770000000     0.483790000000    -0.391126   
O49      O      0.536740000000     0.040940000000     0.726570000000    -0.399853   
O50      O      0.521630000000     0.448000000000     0.718260000000    -0.365371   
O51      O      0.480840000000     0.502870000000     0.711670000000    -0.383672   
O52      O      0.076230000000     0.986010000000     0.733270000000    -0.380787   
O53      O      0.063610000000     0.989150000000     0.784180000000    -0.389775   
O54      O      0.467660000000     0.494790000000     0.761910000000    -0.391103   
O55      O      0.011980000000     0.444820000000     0.769550000000    -0.387701   
O56      O      0.018170000000     0.039010000000     0.775790000000    -0.388856   
O57      O      0.505780000000     0.199260000000     0.759600000000    -0.383267   
O58      O      0.504770000000     0.293520000000     0.763900000000    -0.394267   
O59      O      0.498680000000     0.247670000000     0.713820000000    -0.373933   
O60      O      0.511780000000     0.243640000000     0.807970000000    -0.38142    
O61      O      0.065830000000     0.247860000000     0.801220000000    -0.389431   
O62      O      0.052820000000     0.248620000000     0.706840000000    -0.397949   
O63      O      0.058320000000     0.294690000000     0.753320000000    -0.395975   
O64      O      0.060000000000     0.200180000000     0.752970000000    -0.389125   
O65      O      0.271810000000     0.043300000000     0.705730000000    -0.391783   
O66      O      0.266590000000     0.034070000000     0.800360000000    -0.392495   
O67      O      0.320020000000     0.041440000000     0.755150000000    -0.38628    
O68      O      0.220520000000     0.035830000000     0.751090000000    -0.393633   
O69      O      0.225000000000     0.484800000000     0.741610000000    -0.397405   
O70      O      0.322480000000     0.489450000000     0.754560000000    -0.394196   
O71      O      0.268420000000     0.482270000000     0.795070000000    -0.393943   
O72      O      0.280890000000     0.492110000000     0.701300000000    -0.381373   
O73      O      0.245780000000     0.052900000000     0.507460000000    -0.378809   
O74      O      0.234210000000     0.458840000000     0.499690000000    -0.371873   
O75      O      0.238790000000     0.503670000000     0.550950000000    -0.385472   
O76      O      0.241380000000     0.009790000000     0.955920000000    -0.379493   
O77      O      0.294610000000     0.997960000000     0.956610000000    -0.371556   
O78      O      0.293280000000     0.499570000000     0.551590000000    -0.392976   
O79      O      0.288140000000     0.452760000000     0.005630000000    -0.388839   
O80      O      0.299860000000     0.046690000000     0.002940000000    -0.394099   
O81      O      0.008550000000     0.232700000000     0.554560000000    -0.394716   
O82      O      0.030390000000     0.221960000000     0.962660000000    -0.376187   
O83      O      0.065160000000     0.210530000000     0.019280000000    -0.376033   
O84      O      0.475190000000     0.243730000000     0.496200000000    -0.387353   
O85      O      0.495210000000     0.292290000000     0.497110000000    -0.389487   
O86      O      0.085280000000     0.259040000000     0.018980000000    -0.398111   
O87      O      0.551370000000     0.269960000000     0.961080000000    -0.379884   
O88      O      0.530480000000     0.280350000000     0.553810000000    -0.395266   
O89      O      0.284900000000     0.208570000000     0.535890000000    -0.392106   
O90      O      0.278680000000     0.302520000000     0.527170000000    -0.396429   
O91      O      0.232320000000     0.252670000000     0.535080000000    -0.394335   
O92      O      0.331110000000     0.259740000000     0.528120000000    -0.39307    
O93      O      0.327120000000     0.256970000000     0.975990000000    -0.380225   
O94      O      0.229140000000     0.242350000000     0.983920000000    -0.381811   
O95      O      0.269650000000     0.297160000000     0.975840000000    -0.37595    
O96      O      0.286870000000     0.203770000000     0.983790000000    -0.382743   
O97      O      0.536740000000     0.540940000000     0.226570000000    -0.398857   
O98      O      0.521630000000     0.947990000000     0.218260000000    -0.365633   
O99      O      0.480840000000     0.002870000000     0.211670000000    -0.384659   
O100     O      0.076230000000     0.486000000000     0.233270000000    -0.380732   
O101     O      0.063610000000     0.489150000000     0.284180000000    -0.390461   
O102     O      0.467660000000     0.994790000000     0.261910000000    -0.389807   
O103     O      0.011980000000     0.944820000000     0.269550000000    -0.388029   
O104     O      0.018170000000     0.539010000000     0.275790000000    -0.387957   
O105     O      0.505780000000     0.699260000000     0.259600000000    -0.383387   
O106     O      0.504770000000     0.793520000000     0.263900000000    -0.394197   
O107     O      0.498680000000     0.747670000000     0.213820000000    -0.373906   
O108     O      0.511780000000     0.743640000000     0.307970000000    -0.381433   
O109     O      0.065830000000     0.747870000000     0.301220000000    -0.389356   
O110     O      0.052820000000     0.748620000000     0.206840000000    -0.398013   
O111     O      0.058320000000     0.794690000000     0.253320000000    -0.395967   
O112     O      0.060000000000     0.700180000000     0.252970000000    -0.389177   
O113     O      0.271810000000     0.543300000000     0.205740000000    -0.39229    
O114     O      0.266590000000     0.534070000000     0.300360000000    -0.393071   
O115     O      0.320020000000     0.541440000000     0.255160000000    -0.386709   
O116     O      0.220520000000     0.535830000000     0.251090000000    -0.394004   
O117     O      0.225000000000     0.984810000000     0.241610000000    -0.396175   
O118     O      0.322480000000     0.989450000000     0.254560000000    -0.39287    
O119     O      0.268420000000     0.982270000000     0.295080000000    -0.392656   
O120     O      0.280890000000     0.992100000000     0.201300000000    -0.379682   
O121     O      0.245780000000     0.552900000000     0.007460000000    -0.378832   
O122     O      0.234210000000     0.958840000000     0.999690000000    -0.355935   
O123     O      0.238790000000     0.003670000000     0.050950000000    -0.383958   
O124     O      0.241380000000     0.509790000000     0.455920000000    -0.386785   
O125     O      0.294610000000     0.497960000000     0.456610000000    -0.379644   
O126     O      0.293280000000     0.999570000000     0.051590000000    -0.390423   
O127     O      0.288140000000     0.952760000000     0.505630000000    -0.390632   
O128     O      0.299860000000     0.546690000000     0.502940000000    -0.391354   
O129     O      0.008550000000     0.732700000000     0.054560000000    -0.393618   
O130     O      0.030390000000     0.721960000000     0.462660000000    -0.382798   
O131     O      0.065160000000     0.710530000000     0.519290000000    -0.375927   
O132     O      0.475190000000     0.743730000000     0.996200000000    -0.37957    
O133     O      0.495210000000     0.792290000000     0.997110000000    -0.380997   
O134     O      0.085280000000     0.759040000000     0.518980000000    -0.398462   
O135     O      0.551370000000     0.769960000000     0.461080000000    -0.38657    
O136     O      0.530480000000     0.780360000000     0.053810000000    -0.394039   
O137     O      0.284900000000     0.708580000000     0.035890000000    -0.389531   
O138     O      0.278680000000     0.802520000000     0.027170000000    -0.392083   
O139     O      0.232320000000     0.752660000000     0.035080000000    -0.391792   
O140     O      0.331110000000     0.759740000000     0.028120000000    -0.388851   
O141     O      0.327120000000     0.756960000000     0.475990000000    -0.390312   
O142     O      0.229140000000     0.742350000000     0.483920000000    -0.390236   
O143     O      0.269650000000     0.797160000000     0.475840000000    -0.386034   
O144     O      0.286870000000     0.703770000000     0.483790000000    -0.391075   
O145     O      0.536740000000     0.540940000000     0.726570000000    -0.398753   
O146     O      0.521630000000     0.947990000000     0.718260000000    -0.365538   
O147     O      0.480840000000     0.002870000000     0.711670000000    -0.384489   
O148     O      0.076230000000     0.486000000000     0.733270000000    -0.380785   
O149     O      0.063610000000     0.489150000000     0.784180000000    -0.390131   
O150     O      0.467660000000     0.994790000000     0.761910000000    -0.389727   
O151     O      0.011980000000     0.944820000000     0.769550000000    -0.387893   
O152     O      0.018170000000     0.539010000000     0.775790000000    -0.387805   
O153     O      0.505780000000     0.699260000000     0.759600000000    -0.383393   
O154     O      0.504770000000     0.793520000000     0.763900000000    -0.394176   
O155     O      0.498680000000     0.747670000000     0.713820000000    -0.373936   
O156     O      0.511780000000     0.743640000000     0.807970000000    -0.381423   
O157     O      0.065830000000     0.747870000000     0.801220000000    -0.389421   
O158     O      0.052820000000     0.748620000000     0.706840000000    -0.397947   
O159     O      0.058320000000     0.794690000000     0.753320000000    -0.39595    
O160     O      0.060000000000     0.700180000000     0.752970000000    -0.389176   
O161     O      0.271810000000     0.543300000000     0.705730000000    -0.392299   
O162     O      0.266590000000     0.534070000000     0.800360000000    -0.392898   
O163     O      0.320020000000     0.541440000000     0.755150000000    -0.386667   
O164     O      0.220520000000     0.535830000000     0.751090000000    -0.394004   
O165     O      0.225000000000     0.984810000000     0.741610000000    -0.396164   
O166     O      0.322480000000     0.989450000000     0.754560000000    -0.39287    
O167     O      0.268420000000     0.982270000000     0.795070000000    -0.392561   
O168     O      0.280890000000     0.992100000000     0.701300000000    -0.379759   
O169     O      0.245780000000     0.552900000000     0.507460000000    -0.378987   
O170     O      0.234210000000     0.958840000000     0.499690000000    -0.370773   
O171     O      0.238790000000     0.003670000000     0.550950000000    -0.3852     
O172     O      0.241380000000     0.509790000000     0.955920000000    -0.379799   
O173     O      0.294610000000     0.497960000000     0.956610000000    -0.372921   
O174     O      0.293280000000     0.999570000000     0.551590000000    -0.391527   
O175     O      0.288140000000     0.952760000000     0.005630000000    -0.388966   
O176     O      0.299860000000     0.546690000000     0.002940000000    -0.393075   
O177     O      0.008550000000     0.732700000000     0.554560000000    -0.39465    
O178     O      0.030390000000     0.721960000000     0.962660000000    -0.376162   
O179     O      0.065160000000     0.710530000000     0.019280000000    -0.376006   
O180     O      0.475190000000     0.743730000000     0.496200000000    -0.387341   
O181     O      0.495210000000     0.792290000000     0.497110000000    -0.389445   
O182     O      0.085280000000     0.759040000000     0.018980000000    -0.398105   
O183     O      0.551370000000     0.769960000000     0.961080000000    -0.37986    
O184     O      0.530480000000     0.780360000000     0.553810000000    -0.3951     
O185     O      0.284900000000     0.708580000000     0.535890000000    -0.392102   
O186     O      0.278680000000     0.802520000000     0.527170000000    -0.396385   
O187     O      0.232320000000     0.752660000000     0.535080000000    -0.394375   
O188     O      0.331110000000     0.759740000000     0.528120000000    -0.393072   
O189     O      0.327120000000     0.756960000000     0.975990000000    -0.380219   
O190     O      0.229140000000     0.742350000000     0.983920000000    -0.381818   
O191     O      0.269650000000     0.797160000000     0.975840000000    -0.37588    
O192     O      0.286870000000     0.703770000000     0.983790000000    -0.382684   
O193     O      0.036740000000     0.040940000000     0.226570000000    -0.399956   
O194     O      0.021620000000     0.448000000000     0.218260000000    -0.365477   
O195     O      0.980840000000     0.502870000000     0.211670000000    -0.383762   
O196     O      0.576230000000     0.986010000000     0.233270000000    -0.380744   
O197     O      0.563610000000     0.989150000000     0.284180000000    -0.390115   
O198     O      0.967660000000     0.494790000000     0.261910000000    -0.391109   
O199     O      0.511980000000     0.444820000000     0.269550000000    -0.387789   
O200     O      0.518170000000     0.039010000000     0.275790000000    -0.388987   
O201     O      0.005780000000     0.199260000000     0.259600000000    -0.38328    
O202     O      0.004770000000     0.293520000000     0.263900000000    -0.394306   
O203     O      0.998680000000     0.247670000000     0.213820000000    -0.373731   
O204     O      0.011780000000     0.243640000000     0.307970000000    -0.381429   
O205     O      0.565830000000     0.247860000000     0.301220000000    -0.389368   
O206     O      0.552820000000     0.248620000000     0.206840000000    -0.398043   
O207     O      0.558320000000     0.294690000000     0.253320000000    -0.395993   
O208     O      0.560000000000     0.200180000000     0.252970000000    -0.389128   
O209     O      0.771810000000     0.043300000000     0.205740000000    -0.391777   
O210     O      0.766590000000     0.034070000000     0.300360000000    -0.392668   
O211     O      0.820020000000     0.041440000000     0.255160000000    -0.386321   
O212     O      0.720520000000     0.035830000000     0.251090000000    -0.393668   
O213     O      0.724990000000     0.484800000000     0.241610000000    -0.397397   
O214     O      0.822480000000     0.489450000000     0.254560000000    -0.394173   
O215     O      0.768420000000     0.482270000000     0.295080000000    -0.394023   
O216     O      0.780890000000     0.492110000000     0.201300000000    -0.381281   
O217     O      0.745780000000     0.052900000000     0.007460000000    -0.378656   
O218     O      0.734210000000     0.458840000000     0.999690000000    -0.356996   
O219     O      0.738790000000     0.503670000000     0.050950000000    -0.384225   
O220     O      0.741380000000     0.009790000000     0.455920000000    -0.386453   
O221     O      0.794610000000     0.997960000000     0.456610000000    -0.378261   
O222     O      0.793280000000     0.499570000000     0.051590000000    -0.391862   
O223     O      0.788140000000     0.452760000000     0.505630000000    -0.390508   
O224     O      0.799860000000     0.046690000000     0.502940000000    -0.392387   
O225     O      0.508550000000     0.232700000000     0.054560000000    -0.393657   
O226     O      0.530390000000     0.221960000000     0.462660000000    -0.38281    
O227     O      0.565160000000     0.210530000000     0.519290000000    -0.375965   
O228     O      0.975190000000     0.243730000000     0.996200000000    -0.379515   
O229     O      0.995210000000     0.292290000000     0.997110000000    -0.380958   
O230     O      0.585280000000     0.259040000000     0.518980000000    -0.398481   
O231     O      0.051370000000     0.269960000000     0.461080000000    -0.386597   
O232     O      0.030480000000     0.280350000000     0.053810000000    -0.394213   
O233     O      0.784900000000     0.208570000000     0.035890000000    -0.389535   
O234     O      0.778680000000     0.302520000000     0.027170000000    -0.39212    
O235     O      0.732320000000     0.252670000000     0.035080000000    -0.391751   
O236     O      0.831110000000     0.259740000000     0.028120000000    -0.388883   
O237     O      0.827130000000     0.256970000000     0.475990000000    -0.390308   
O238     O      0.729140000000     0.242350000000     0.483920000000    -0.390197   
O239     O      0.769640000000     0.297160000000     0.475840000000    -0.386066   
O240     O      0.786870000000     0.203770000000     0.483790000000    -0.39111    
O241     O      0.036740000000     0.040940000000     0.726570000000    -0.399856   
O242     O      0.021620000000     0.448000000000     0.718260000000    -0.365382   
O243     O      0.980840000000     0.502870000000     0.711670000000    -0.383587   
O244     O      0.576230000000     0.986010000000     0.733270000000    -0.380797   
O245     O      0.563610000000     0.989150000000     0.784180000000    -0.389786   
O246     O      0.967660000000     0.494790000000     0.761910000000    -0.391033   
O247     O      0.511980000000     0.444820000000     0.769550000000    -0.387654   
O248     O      0.518170000000     0.039010000000     0.775790000000    -0.388839   
O249     O      0.005780000000     0.199260000000     0.759600000000    -0.383286   
O250     O      0.004770000000     0.293520000000     0.763900000000    -0.394285   
O251     O      0.998680000000     0.247670000000     0.713820000000    -0.37376    
O252     O      0.011780000000     0.243640000000     0.807970000000    -0.381419   
O253     O      0.565830000000     0.247860000000     0.801220000000    -0.389434   
O254     O      0.552820000000     0.248620000000     0.706840000000    -0.397977   
O255     O      0.558320000000     0.294690000000     0.753320000000    -0.395976   
O256     O      0.560000000000     0.200180000000     0.752970000000    -0.389127   
O257     O      0.771810000000     0.043300000000     0.705730000000    -0.391785   
O258     O      0.766590000000     0.034070000000     0.800360000000    -0.392495   
O259     O      0.820020000000     0.041440000000     0.755150000000    -0.386277   
O260     O      0.720520000000     0.035830000000     0.751090000000    -0.393667   
O261     O      0.724990000000     0.484800000000     0.741610000000    -0.39739    
O262     O      0.822480000000     0.489450000000     0.754560000000    -0.394177   
O263     O      0.768420000000     0.482270000000     0.795070000000    -0.393931   
O264     O      0.780890000000     0.492110000000     0.701300000000    -0.381364   
O265     O      0.745780000000     0.052900000000     0.507460000000    -0.378808   
O266     O      0.734210000000     0.458840000000     0.499690000000    -0.371872   
O267     O      0.738790000000     0.503670000000     0.550950000000    -0.385473   
O268     O      0.741380000000     0.009790000000     0.955920000000    -0.379493   
O269     O      0.794610000000     0.997960000000     0.956610000000    -0.371553   
O270     O      0.793280000000     0.499570000000     0.551590000000    -0.392975   
O271     O      0.788140000000     0.452760000000     0.005630000000    -0.388838   
O272     O      0.799860000000     0.046690000000     0.002940000000    -0.394096   
O273     O      0.508550000000     0.232700000000     0.554560000000    -0.394688   
O274     O      0.530390000000     0.221960000000     0.962660000000    -0.376179   
O275     O      0.565160000000     0.210530000000     0.019280000000    -0.376043   
O276     O      0.975190000000     0.243730000000     0.496200000000    -0.38728    
O277     O      0.995210000000     0.292290000000     0.497110000000    -0.389405   
O278     O      0.585280000000     0.259040000000     0.018980000000    -0.398124   
O279     O      0.051370000000     0.269960000000     0.961080000000    -0.379889   
O280     O      0.030480000000     0.280350000000     0.553810000000    -0.395274   
O281     O      0.784900000000     0.208570000000     0.535890000000    -0.392105   
O282     O      0.778680000000     0.302520000000     0.527170000000    -0.396423   
O283     O      0.732320000000     0.252670000000     0.535080000000    -0.394332   
O284     O      0.831110000000     0.259740000000     0.528120000000    -0.393103   
O285     O      0.827130000000     0.256970000000     0.975990000000    -0.380213   
O286     O      0.729140000000     0.242350000000     0.983920000000    -0.381784   
O287     O      0.769640000000     0.297160000000     0.975840000000    -0.375908   
O288     O      0.786870000000     0.203770000000     0.983790000000    -0.382728   
O289     O      0.036740000000     0.540940000000     0.226570000000    -0.398859   
O290     O      0.021620000000     0.947990000000     0.218260000000    -0.365644   
O291     O      0.980840000000     0.002870000000     0.211670000000    -0.384574   
O292     O      0.576230000000     0.486000000000     0.233270000000    -0.380742   
O293     O      0.563610000000     0.489150000000     0.284180000000    -0.390473   
O294     O      0.967660000000     0.994790000000     0.261910000000    -0.389737   
O295     O      0.511980000000     0.944820000000     0.269550000000    -0.387982   
O296     O      0.518170000000     0.539010000000     0.275790000000    -0.387939   
O297     O      0.005780000000     0.699260000000     0.259600000000    -0.383406   
O298     O      0.004770000000     0.793520000000     0.263900000000    -0.394215   
O299     O      0.998680000000     0.747670000000     0.213820000000    -0.373733   
O300     O      0.011780000000     0.743640000000     0.307970000000    -0.381432   
O301     O      0.565830000000     0.747870000000     0.301220000000    -0.389358   
O302     O      0.552820000000     0.748620000000     0.206840000000    -0.398041   
O303     O      0.558320000000     0.794690000000     0.253320000000    -0.395968   
O304     O      0.560000000000     0.700180000000     0.252970000000    -0.389179   
O305     O      0.771810000000     0.543300000000     0.205740000000    -0.392291   
O306     O      0.766590000000     0.534070000000     0.300360000000    -0.393071   
O307     O      0.820020000000     0.541440000000     0.255160000000    -0.386707   
O308     O      0.720520000000     0.535830000000     0.251090000000    -0.394038   
O309     O      0.724990000000     0.984810000000     0.241610000000    -0.39616    
O310     O      0.822480000000     0.989450000000     0.254560000000    -0.39285    
O311     O      0.768420000000     0.982270000000     0.295080000000    -0.392643   
O312     O      0.780890000000     0.992100000000     0.201300000000    -0.379671   
O313     O      0.745780000000     0.552900000000     0.007460000000    -0.378832   
O314     O      0.734210000000     0.958840000000     0.999690000000    -0.355934   
O315     O      0.738790000000     0.003670000000     0.050950000000    -0.383959   
O316     O      0.741380000000     0.509790000000     0.455920000000    -0.386785   
O317     O      0.794610000000     0.497960000000     0.456610000000    -0.379642   
O318     O      0.793280000000     0.999570000000     0.051590000000    -0.390422   
O319     O      0.788140000000     0.952760000000     0.505630000000    -0.390631   
O320     O      0.799860000000     0.546690000000     0.502940000000    -0.391351   
O321     O      0.508550000000     0.732700000000     0.054560000000    -0.393591   
O322     O      0.530390000000     0.721960000000     0.462660000000    -0.38279    
O323     O      0.565160000000     0.710530000000     0.519290000000    -0.375937   
O324     O      0.975190000000     0.743730000000     0.996200000000    -0.379498   
O325     O      0.995210000000     0.792290000000     0.997110000000    -0.380916   
O326     O      0.585280000000     0.759040000000     0.518980000000    -0.398475   
O327     O      0.051370000000     0.769960000000     0.461080000000    -0.386575   
O328     O      0.030480000000     0.780360000000     0.053810000000    -0.394048   
O329     O      0.784900000000     0.708580000000     0.035890000000    -0.38953    
O330     O      0.778680000000     0.802520000000     0.027170000000    -0.392078   
O331     O      0.732320000000     0.752660000000     0.035080000000    -0.391788   
O332     O      0.831110000000     0.759740000000     0.028120000000    -0.388883   
O333     O      0.827130000000     0.756960000000     0.475990000000    -0.390304   
O334     O      0.729140000000     0.742350000000     0.483920000000    -0.390208   
O335     O      0.769640000000     0.797160000000     0.475840000000    -0.385991   
O336     O      0.786870000000     0.703770000000     0.483790000000    -0.391059   
O337     O      0.036740000000     0.540940000000     0.726570000000    -0.398755   
O338     O      0.021620000000     0.947990000000     0.718260000000    -0.365548   
O339     O      0.980840000000     0.002870000000     0.711670000000    -0.384404   
O340     O      0.576230000000     0.486000000000     0.733270000000    -0.380795   
O341     O      0.563610000000     0.489150000000     0.784180000000    -0.390143   
O342     O      0.967660000000     0.994790000000     0.761910000000    -0.389657   
O343     O      0.511980000000     0.944820000000     0.769550000000    -0.387846   
O344     O      0.518170000000     0.539010000000     0.775790000000    -0.387788   
O345     O      0.005780000000     0.699260000000     0.759600000000    -0.383413   
O346     O      0.004770000000     0.793520000000     0.763900000000    -0.394194   
O347     O      0.998680000000     0.747670000000     0.713820000000    -0.373763   
O348     O      0.011780000000     0.743640000000     0.807970000000    -0.381422   
O349     O      0.565830000000     0.747870000000     0.801220000000    -0.389423   
O350     O      0.552820000000     0.748620000000     0.706840000000    -0.397975   
O351     O      0.558320000000     0.794690000000     0.753320000000    -0.395951   
O352     O      0.560000000000     0.700180000000     0.752970000000    -0.389179   
O353     O      0.771810000000     0.543300000000     0.705730000000    -0.3923     
O354     O      0.766590000000     0.534070000000     0.800360000000    -0.392898   
O355     O      0.820020000000     0.541440000000     0.755150000000    -0.386664   
O356     O      0.720520000000     0.535830000000     0.751090000000    -0.394038   
O357     O      0.724990000000     0.984810000000     0.741610000000    -0.396149   
O358     O      0.822480000000     0.989450000000     0.754560000000    -0.392851   
O359     O      0.768420000000     0.982270000000     0.795070000000    -0.392549   
O360     O      0.780890000000     0.992100000000     0.701300000000    -0.379749   
O361     O      0.745780000000     0.552900000000     0.507460000000    -0.378986   
O362     O      0.734210000000     0.958840000000     0.499690000000    -0.370772   
O363     O      0.738790000000     0.003670000000     0.550950000000    -0.385201   
O364     O      0.741380000000     0.509790000000     0.955920000000    -0.379798   
O365     O      0.794610000000     0.497960000000     0.956610000000    -0.372919   
O366     O      0.793280000000     0.999570000000     0.551590000000    -0.391526   
O367     O      0.788140000000     0.952760000000     0.005630000000    -0.388964   
O368     O      0.799860000000     0.546690000000     0.002940000000    -0.393072   
O369     O      0.508550000000     0.732700000000     0.554560000000    -0.394622   
O370     O      0.530390000000     0.721960000000     0.962660000000    -0.376154   
O371     O      0.565160000000     0.710530000000     0.019280000000    -0.376016   
O372     O      0.975190000000     0.743730000000     0.496200000000    -0.387268   
O373     O      0.995210000000     0.792290000000     0.497110000000    -0.389362   
O374     O      0.585280000000     0.759040000000     0.018980000000    -0.398118   
O375     O      0.051370000000     0.769960000000     0.961080000000    -0.379866   
O376     O      0.030480000000     0.780360000000     0.553810000000    -0.395108   
O377     O      0.784900000000     0.708580000000     0.535890000000    -0.392101   
O378     O      0.778680000000     0.802520000000     0.527170000000    -0.396379   
O379     O      0.732320000000     0.752660000000     0.535080000000    -0.394372   
O380     O      0.831110000000     0.759740000000     0.528120000000    -0.393105   
O381     O      0.827130000000     0.756960000000     0.975990000000    -0.380207   
O382     O      0.729140000000     0.742350000000     0.983920000000    -0.381791   
O383     O      0.769640000000     0.797160000000     0.975840000000    -0.375839   
O384     O      0.786870000000     0.703770000000     0.983790000000    -0.382668   


