data_structure

_audit_creation_method RASPA-1.0
_audit_creation_date 2023-6-4
_audit_author_name 'Poobodin Mano'

_cell_length_a    27.3744
_cell_length_b    29.3698
_cell_length_c    20.5914
_cell_angle_alpha 89.9989
_cell_angle_beta  89.9989
_cell_angle_gamma 96.7619
_cell_volume      16439.9

_symmetry_cell_setting          triclinic
_symmetry_space_group_name_Hall 'P 1'
_symmetry_space_group_name_H-M  'P 1'
_symmetry_Int_Tables_number     1

_symmetry_equiv_pos_as_xyz 'x,y,z'

loop_
_atom_site_label
_atom_site_type_symbol
_atom_site_fract_x
_atom_site_fract_y
_atom_site_fract_z
_atom_site_charge
C1       C      0.051880000000     0.428640000000     0.016210000000     0.392842   
C2       C      0.460370000000     0.080040000000     0.015330000000     0.394706   
C3       C      0.090540000000     0.051730000000     0.986510000000     0.411366   
C4       C      0.419790000000     0.457770000000     0.044030000000     0.41109    
C5       C      0.074440000000     0.394770000000     0.543360000000     0.394993   
C6       C      0.493020000000     0.051800000000     0.519640000000     0.391889   
C7       C      0.123550000000     0.018180000000     0.528160000000     0.409228   
C8       C      0.444220000000     0.428920000000     0.535450000000     0.409126   
C9       C      0.262730000000     0.262500000000     0.897180000000     0.46728    
C10      C      0.248560000000     0.247840000000     0.143600000000     0.470365   
C11      C      0.331270000000     0.211200000000     0.016140000000     0.458074   
C12      C      0.179470000000     0.296550000000     0.016920000000     0.460759   
C13      C      0.280840000000     0.226340000000     0.402050000000     0.466526   
C14      C      0.288560000000     0.220790000000     0.648620000000     0.465594   
C15      C      0.359650000000     0.179520000000     0.517760000000     0.459677   
C16      C      0.210450000000     0.269090000000     0.533640000000     0.451859   
C17      C      0.247260000000     0.199380000000     0.753430000000    -0.011669   
C18      C      0.328020000000     0.249100000000     0.751820000000    -0.0392667  
C19      C      0.225140000000     0.236460000000     0.792370000000    -0.00839748 
C20      C      0.305130000000     0.286460000000     0.789840000000     0.079013   
C21      C      0.345090000000     0.318230000000     0.825320000000    -0.185899   
C22      C      0.307270000000     0.264270000000     0.297760000000    -0.0115988  
C23      C      0.250080000000     0.190890000000     0.298170000000    -0.0387522  
C24      C      0.273270000000     0.284310000000     0.248850000000    -0.00983108 
C25      C      0.215860000000     0.212090000000     0.250640000000     0.0787794  
C26      C      0.183030000000     0.174500000000     0.214010000000    -0.18434    
C27      C      0.183280000000     0.341240000000     0.571960000000    -0.00968738 
C28      C      0.131480000000     0.290490000000     0.492360000000    -0.0393989  
C29      C      0.136120000000     0.355780000000     0.601150000000    -0.0122719  
C30      C      0.085460000000     0.312130000000     0.516330000000     0.0754326  
C31      C      0.047810000000     0.313520000000     0.461090000000    -0.187924   
C32      C      0.335000000000     0.352260000000     0.482770000000    -0.0348661  
C33      C      0.354470000000     0.340450000000     0.595940000000    -0.0589912  
C34      C      0.370570000000     0.395940000000     0.475910000000     0.00405141 
C35      C      0.373830000000     0.392120000000     0.599150000000     0.0853729  
C36      C      0.332780000000     0.421840000000     0.615070000000    -0.188059   
C37      C      0.473990000000     0.127070000000     0.562750000000    -0.0148174  
C38      C      0.447330000000     0.102030000000     0.451230000000    -0.0408374  
C39      C      0.424720000000     0.146520000000     0.573600000000    -0.00968726 
C40      C      0.395470000000     0.116020000000     0.463400000000     0.077066   
C41      C      0.373770000000     0.130430000000     0.398330000000    -0.188372   
C42      C      0.229110000000     0.097460000000     0.470540000000    -0.0334228  
C43      C      0.218750000000     0.103810000000     0.586790000000    -0.0587994  
C44      C      0.192800000000     0.054210000000     0.463440000000     0.0036739  
C45      C      0.197890000000     0.052450000000     0.586740000000     0.0852826  
C46      C      0.238660000000     0.021060000000     0.594460000000    -0.187985   
C47      C      0.117360000000     0.392920000000     0.962640000000    -0.0161057  
C48      C      0.087260000000     0.366860000000     0.074460000000    -0.040804   
C49      C      0.133020000000     0.345240000000     0.950570000000    -0.00548782 
C50      C      0.098760000000     0.317820000000     0.058310000000     0.0783884  
C51      C      0.108280000000     0.292040000000     0.121480000000    -0.188522   
C52      C      0.362210000000     0.354610000000     0.084950000000    -0.0153508  
C53      C      0.325990000000     0.383000000000     0.985440000000    -0.0450398  
C54      C      0.370190000000     0.403230000000     0.113040000000    -0.00633116 
C55      C      0.332570000000     0.431690000000     0.012560000000     0.0842753  
C56      C      0.334920000000     0.468260000000     0.958700000000    -0.1876     
C57      C      0.367210000000     0.150950000000     0.956240000000    -0.00850841 
C58      C      0.418680000000     0.198730000000     0.036040000000    -0.0351198  
C59      C      0.383760000000     0.107400000000     0.983690000000    -0.012636   
C60      C      0.440430000000     0.155310000000     0.062050000000     0.0716025  
C61      C      0.495360000000     0.168650000000     0.078140000000    -0.184572   
C62      C      0.183820000000     0.124460000000     0.049420000000    -0.0125661  
C63      C      0.146960000000     0.157500000000     0.953890000000    -0.0424214  
C64      C      0.175490000000     0.076870000000     0.018690000000    -0.00559709 
C65      C      0.141310000000     0.110880000000     0.919720000000     0.0810906  
C66      C      0.100980000000     0.109010000000     0.867370000000    -0.187364   
C67      C      0.051880000000     0.928640000000     0.016210000000     0.392839   
C68      C      0.460370000000     0.580030000000     0.015330000000     0.394817   
C69      C      0.090540000000     0.551730000000     0.986510000000     0.411417   
C70      C      0.419790000000     0.957760000000     0.044030000000     0.411085   
C71      C      0.074440000000     0.894770000000     0.543360000000     0.394948   
C72      C      0.493030000000     0.551800000000     0.519640000000     0.39198    
C73      C      0.123550000000     0.518180000000     0.528160000000     0.409269   
C74      C      0.444220000000     0.928920000000     0.535450000000     0.409137   
C75      C      0.262730000000     0.762500000000     0.897180000000     0.467365   
C76      C      0.248560000000     0.747840000000     0.143600000000     0.47037    
C77      C      0.331270000000     0.711200000000     0.016140000000     0.458124   
C78      C      0.179460000000     0.796550000000     0.016920000000     0.4607     
C79      C      0.280840000000     0.726340000000     0.402050000000     0.466789   
C80      C      0.288560000000     0.720790000000     0.648620000000     0.465531   
C81      C      0.359650000000     0.679520000000     0.517760000000     0.459679   
C82      C      0.210450000000     0.769090000000     0.533640000000     0.45186    
C83      C      0.247260000000     0.699380000000     0.753430000000    -0.0116564  
C84      C      0.328020000000     0.749100000000     0.751820000000    -0.0393151  
C85      C      0.225140000000     0.736460000000     0.792370000000    -0.00838881 
C86      C      0.305130000000     0.786460000000     0.789840000000     0.07904    
C87      C      0.345090000000     0.818230000000     0.825320000000    -0.185963   
C88      C      0.307260000000     0.764270000000     0.297760000000    -0.0115301  
C89      C      0.250080000000     0.690890000000     0.298170000000    -0.038731   
C90      C      0.273270000000     0.784310000000     0.248850000000    -0.00985424 
C91      C      0.215860000000     0.712090000000     0.250640000000     0.0787581  
C92      C      0.183030000000     0.674500000000     0.214010000000    -0.184293   
C93      C      0.183280000000     0.841240000000     0.571960000000    -0.00968533 
C94      C      0.131480000000     0.790490000000     0.492360000000    -0.0393969  
C95      C      0.136120000000     0.855780000000     0.601150000000    -0.0122759  
C96      C      0.085460000000     0.812130000000     0.516330000000     0.0754276  
C97      C      0.047810000000     0.813520000000     0.461090000000    -0.187918   
C98      C      0.335000000000     0.852260000000     0.482770000000    -0.0348664  
C99      C      0.354470000000     0.840450000000     0.595940000000    -0.0589884  
C100     C      0.370570000000     0.895940000000     0.475910000000     0.00405578 
C101     C      0.373830000000     0.892120000000     0.599150000000     0.0853678  
C102     C      0.332780000000     0.921840000000     0.615070000000    -0.188039   
C103     C      0.473990000000     0.627070000000     0.562750000000    -0.0148207  
C104     C      0.447330000000     0.602030000000     0.451230000000    -0.0408462  
C105     C      0.424720000000     0.646520000000     0.573600000000    -0.00969349 
C106     C      0.395470000000     0.616030000000     0.463400000000     0.0771001  
C107     C      0.373770000000     0.630430000000     0.398330000000    -0.188371   
C108     C      0.229110000000     0.597460000000     0.470540000000    -0.0334178  
C109     C      0.218750000000     0.603810000000     0.586790000000    -0.058824   
C110     C      0.192800000000     0.554210000000     0.463440000000     0.00368104 
C111     C      0.197890000000     0.552450000000     0.586740000000     0.0853614  
C112     C      0.238660000000     0.521060000000     0.594460000000    -0.188322   
C113     C      0.117360000000     0.892910000000     0.962650000000    -0.0160269  
C114     C      0.087260000000     0.866870000000     0.074460000000    -0.0407536  
C115     C      0.133010000000     0.845240000000     0.950570000000    -0.00551107 
C116     C      0.098760000000     0.817820000000     0.058310000000     0.0783792  
C117     C      0.108280000000     0.792040000000     0.121480000000    -0.188577   
C118     C      0.362210000000     0.854610000000     0.084950000000    -0.0154393  
C119     C      0.325990000000     0.883000000000     0.985440000000    -0.0450469  
C120     C      0.370190000000     0.903230000000     0.113030000000    -0.00624616 
C121     C      0.332570000000     0.931690000000     0.012550000000     0.0843274  
C122     C      0.334930000000     0.968270000000     0.958700000000    -0.187963   
C123     C      0.367200000000     0.650950000000     0.956240000000    -0.00847935 
C124     C      0.418680000000     0.698730000000     0.036040000000    -0.0351648  
C125     C      0.383760000000     0.607400000000     0.983690000000    -0.0126425  
C126     C      0.440430000000     0.655310000000     0.062050000000     0.0716183  
C127     C      0.495360000000     0.668650000000     0.078140000000    -0.184576   
C128     C      0.183820000000     0.624460000000     0.049420000000    -0.0125336  
C129     C      0.146960000000     0.657490000000     0.953900000000    -0.0423804  
C130     C      0.175490000000     0.576870000000     0.018690000000    -0.00558663 
C131     C      0.141310000000     0.610890000000     0.919720000000     0.0810655  
C132     C      0.100980000000     0.609010000000     0.867370000000    -0.187484   
C133     C      0.551880000000     0.428640000000     0.016210000000     0.392819   
C134     C      0.960370000000     0.080040000000     0.015330000000     0.394734   
C135     C      0.590540000000     0.051730000000     0.986510000000     0.411377   
C136     C      0.919790000000     0.457760000000     0.044030000000     0.411066   
C137     C      0.574440000000     0.394770000000     0.543360000000     0.394985   
C138     C      0.993020000000     0.051800000000     0.519640000000     0.392312   
C139     C      0.623550000000     0.018180000000     0.528160000000     0.409241   
C140     C      0.944220000000     0.428920000000     0.535450000000     0.409103   
C141     C      0.762730000000     0.262500000000     0.897180000000     0.46735    
C142     C      0.748560000000     0.247840000000     0.143600000000     0.470369   
C143     C      0.831270000000     0.211200000000     0.016140000000     0.458152   
C144     C      0.679460000000     0.296550000000     0.016920000000     0.460716   
C145     C      0.780840000000     0.226340000000     0.402050000000     0.466522   
C146     C      0.788560000000     0.220790000000     0.648620000000     0.465532   
C147     C      0.859650000000     0.179520000000     0.517760000000     0.459676   
C148     C      0.710450000000     0.269090000000     0.533640000000     0.451859   
C149     C      0.747260000000     0.199380000000     0.753430000000    -0.0116403  
C150     C      0.828020000000     0.249100000000     0.751820000000    -0.0393153  
C151     C      0.725140000000     0.236460000000     0.792370000000    -0.00838062 
C152     C      0.805130000000     0.286460000000     0.789840000000     0.0790316  
C153     C      0.845090000000     0.318230000000     0.825320000000    -0.185918   
C154     C      0.807260000000     0.264270000000     0.297760000000    -0.0115856  
C155     C      0.750080000000     0.190890000000     0.298170000000    -0.0387258  
C156     C      0.773270000000     0.284310000000     0.248850000000    -0.0098184  
C157     C      0.715860000000     0.212090000000     0.250640000000     0.078762   
C158     C      0.683030000000     0.174500000000     0.214010000000    -0.184302   
C159     C      0.683280000000     0.341240000000     0.571960000000    -0.00968623 
C160     C      0.631480000000     0.290490000000     0.492360000000    -0.0393886  
C161     C      0.636120000000     0.355780000000     0.601150000000    -0.0122742  
C162     C      0.585450000000     0.312130000000     0.516330000000     0.0754458  
C163     C      0.547810000000     0.313520000000     0.461090000000    -0.187956   
C164     C      0.835000000000     0.352260000000     0.482770000000    -0.034872   
C165     C      0.854480000000     0.340450000000     0.595940000000    -0.0589972  
C166     C      0.870580000000     0.395940000000     0.475910000000     0.00407284 
C167     C      0.873830000000     0.392120000000     0.599150000000     0.0853827  
C168     C      0.832780000000     0.421840000000     0.615070000000    -0.188093   
C169     C      0.973990000000     0.127070000000     0.562750000000    -0.0145782  
C170     C      0.947330000000     0.102030000000     0.451230000000    -0.0408068  
C171     C      0.924720000000     0.146520000000     0.573600000000    -0.00974614 
C172     C      0.895470000000     0.116020000000     0.463400000000     0.0770395  
C173     C      0.873770000000     0.130430000000     0.398330000000    -0.188293   
C174     C      0.729110000000     0.097460000000     0.470540000000    -0.033422   
C175     C      0.718750000000     0.103810000000     0.586790000000    -0.058796   
C176     C      0.692800000000     0.054210000000     0.463440000000     0.00367358 
C177     C      0.697890000000     0.052450000000     0.586740000000     0.0852745  
C178     C      0.738660000000     0.021060000000     0.594460000000    -0.18795    
C179     C      0.617360000000     0.392920000000     0.962650000000    -0.0160661  
C180     C      0.587260000000     0.366870000000     0.074460000000    -0.0407491  
C181     C      0.633010000000     0.345240000000     0.950570000000    -0.00548496 
C182     C      0.598760000000     0.317820000000     0.058310000000     0.0783526  
C183     C      0.608280000000     0.292040000000     0.121480000000    -0.188465   
C184     C      0.862200000000     0.354610000000     0.084950000000    -0.0154027  
C185     C      0.825990000000     0.383000000000     0.985440000000    -0.0450264  
C186     C      0.870190000000     0.403230000000     0.113030000000    -0.00628675 
C187     C      0.832570000000     0.431690000000     0.012550000000     0.0842714  
C188     C      0.834930000000     0.468260000000     0.958700000000    -0.187586   
C189     C      0.867200000000     0.150950000000     0.956240000000    -0.00849925 
C190     C      0.918680000000     0.198730000000     0.036040000000    -0.0350834  
C191     C      0.883760000000     0.107400000000     0.983690000000    -0.0126351  
C192     C      0.940430000000     0.155310000000     0.062050000000     0.0714344  
C193     C      0.995360000000     0.168650000000     0.078140000000    -0.183807   
C194     C      0.683820000000     0.124460000000     0.049420000000    -0.0125253  
C195     C      0.646960000000     0.157500000000     0.953900000000    -0.0423554  
C196     C      0.675490000000     0.076870000000     0.018690000000    -0.00560418 
C197     C      0.641310000000     0.110890000000     0.919720000000     0.0810531  
C198     C      0.600980000000     0.109010000000     0.867370000000    -0.18739    
C199     C      0.551880000000     0.928640000000     0.016210000000     0.392905   
C200     C      0.960370000000     0.580030000000     0.015330000000     0.394802   
C201     C      0.590540000000     0.551730000000     0.986510000000     0.411398   
C202     C      0.919790000000     0.957760000000     0.044030000000     0.411071   
C203     C      0.574440000000     0.894770000000     0.543360000000     0.394963   
C204     C      0.993030000000     0.551800000000     0.519640000000     0.392401   
C205     C      0.623550000000     0.518180000000     0.528160000000     0.409281   
C206     C      0.944220000000     0.928920000000     0.535450000000     0.409115   
C207     C      0.762740000000     0.762500000000     0.897180000000     0.467268   
C208     C      0.748560000000     0.747840000000     0.143600000000     0.470362   
C209     C      0.831270000000     0.711200000000     0.016140000000     0.458018   
C210     C      0.679470000000     0.796550000000     0.016920000000     0.460755   
C211     C      0.780840000000     0.726340000000     0.402050000000     0.466798   
C212     C      0.788560000000     0.720790000000     0.648620000000     0.465601   
C213     C      0.859650000000     0.679520000000     0.517760000000     0.459798   
C214     C      0.710450000000     0.769090000000     0.533640000000     0.451887   
C215     C      0.747260000000     0.699380000000     0.753430000000    -0.0116918  
C216     C      0.828020000000     0.749100000000     0.751820000000    -0.0392743  
C217     C      0.725140000000     0.736460000000     0.792370000000    -0.00840798 
C218     C      0.805130000000     0.786460000000     0.789840000000     0.079025   
C219     C      0.845090000000     0.818230000000     0.825320000000    -0.185961   
C220     C      0.807260000000     0.764270000000     0.297760000000    -0.0115329  
C221     C      0.750080000000     0.690890000000     0.298170000000    -0.0387367  
C222     C      0.773270000000     0.784310000000     0.248850000000    -0.00985353 
C223     C      0.715860000000     0.712090000000     0.250640000000     0.0787726  
C224     C      0.683030000000     0.674500000000     0.214010000000    -0.184335   
C225     C      0.683280000000     0.841240000000     0.571960000000    -0.00968402 
C226     C      0.631480000000     0.790490000000     0.492360000000    -0.0393978  
C227     C      0.636120000000     0.855780000000     0.601150000000    -0.0122773  
C228     C      0.585460000000     0.812130000000     0.516330000000     0.0754362  
C229     C      0.547810000000     0.813520000000     0.461090000000    -0.187924   
C230     C      0.835000000000     0.852260000000     0.482770000000    -0.034862   
C231     C      0.854470000000     0.840450000000     0.595940000000    -0.058987   
C232     C      0.870570000000     0.895940000000     0.475910000000     0.00405366 
C233     C      0.873830000000     0.892120000000     0.599150000000     0.08537    
C234     C      0.832780000000     0.921840000000     0.615070000000    -0.188042   
C235     C      0.973990000000     0.627070000000     0.562750000000    -0.0145832  
C236     C      0.947330000000     0.602030000000     0.451230000000    -0.0408272  
C237     C      0.924720000000     0.646520000000     0.573600000000    -0.0097481  
C238     C      0.895470000000     0.616030000000     0.463400000000     0.0771079  
C239     C      0.873770000000     0.630430000000     0.398330000000    -0.18838    
C240     C      0.729110000000     0.597460000000     0.470540000000    -0.0333822  
C241     C      0.718750000000     0.603810000000     0.586790000000    -0.0588197  
C242     C      0.692810000000     0.554210000000     0.463440000000     0.00366736 
C243     C      0.697890000000     0.552450000000     0.586740000000     0.0853576  
C244     C      0.738660000000     0.521060000000     0.594460000000    -0.188322   
C245     C      0.617360000000     0.892910000000     0.962640000000    -0.0160684  
C246     C      0.587260000000     0.866870000000     0.074460000000    -0.0407706  
C247     C      0.633020000000     0.845240000000     0.950570000000    -0.00550265 
C248     C      0.598760000000     0.817820000000     0.058310000000     0.0783641  
C249     C      0.608280000000     0.792040000000     0.121480000000    -0.188514   
C250     C      0.862210000000     0.854610000000     0.084950000000    -0.0154197  
C251     C      0.825990000000     0.883000000000     0.985440000000    -0.0450569  
C252     C      0.870190000000     0.903230000000     0.113040000000    -0.00630369 
C253     C      0.832570000000     0.931690000000     0.012560000000     0.0843391  
C254     C      0.834930000000     0.968270000000     0.958700000000    -0.18797    
C255     C      0.867210000000     0.650950000000     0.956240000000    -0.00848446 
C256     C      0.918680000000     0.698730000000     0.036040000000    -0.0350824  
C257     C      0.883760000000     0.607400000000     0.983690000000    -0.0126424  
C258     C      0.940430000000     0.655310000000     0.062050000000     0.0714327  
C259     C      0.995360000000     0.668650000000     0.078140000000    -0.1838     
C260     C      0.683820000000     0.624460000000     0.049420000000    -0.0125738  
C261     C      0.646960000000     0.657490000000     0.953890000000    -0.0424094  
C262     C      0.675490000000     0.576870000000     0.018690000000    -0.00559234 
C263     C      0.641310000000     0.610890000000     0.919720000000     0.0810646  
C264     C      0.600980000000     0.609010000000     0.867370000000    -0.187421   
Cu1      Cu     0.496830000000     0.998890000000     0.957440000000     0.846544   
Cu2      Cu     0.014560000000     0.509080000000     0.074350000000     0.831045   
Cu3      Cu     0.533870000000     0.969100000000     0.472050000000     0.837904   
Cu4      Cu     0.033990000000     0.477730000000     0.591300000000     0.837809   
Cu5      Cu     0.286320000000     0.294210000000     0.025170000000     1.14735    
Cu6      Cu     0.224760000000     0.214810000000     0.014890000000     1.17074    
Cu7      Cu     0.317910000000     0.263350000000     0.527880000000     1.16427    
Cu8      Cu     0.251230000000     0.184110000000     0.523550000000     1.15275    
Cu9      Cu     0.496820000000     0.498900000000     0.957440000000     0.847182   
Cu10     Cu     0.014550000000     0.009080000000     0.074350000000     0.831695   
Cu11     Cu     0.533870000000     0.469110000000     0.472050000000     0.838223   
Cu12     Cu     0.033990000000     0.977730000000     0.591300000000     0.83736    
Cu13     Cu     0.286320000000     0.794210000000     0.025170000000     1.14737    
Cu14     Cu     0.224760000000     0.714810000000     0.014890000000     1.1708     
Cu15     Cu     0.317910000000     0.763350000000     0.527880000000     1.16431    
Cu16     Cu     0.251230000000     0.684110000000     0.523550000000     1.15269    
Cu17     Cu     0.996820000000     0.998890000000     0.957440000000     0.847016   
Cu18     Cu     0.514550000000     0.509080000000     0.074350000000     0.831496   
Cu19     Cu     0.033870000000     0.969100000000     0.472050000000     0.837777   
Cu20     Cu     0.533990000000     0.477730000000     0.591300000000     0.83799    
Cu21     Cu     0.786310000000     0.294210000000     0.025170000000     1.14737    
Cu22     Cu     0.724760000000     0.214810000000     0.014890000000     1.17071    
Cu23     Cu     0.817910000000     0.263350000000     0.527880000000     1.16427    
Cu24     Cu     0.751230000000     0.184110000000     0.523550000000     1.15275    
Cu25     Cu     0.996820000000     0.498890000000     0.957440000000     0.847695   
Cu26     Cu     0.514560000000     0.009080000000     0.074350000000     0.832041   
Cu27     Cu     0.033870000000     0.469110000000     0.472050000000     0.838103   
Cu28     Cu     0.533990000000     0.977730000000     0.591300000000     0.837498   
Cu29     Cu     0.786320000000     0.794210000000     0.025170000000     1.14727    
Cu30     Cu     0.724760000000     0.714810000000     0.014890000000     1.17073    
Cu31     Cu     0.817910000000     0.763350000000     0.527880000000     1.16438    
Cu32     Cu     0.751220000000     0.684110000000     0.523550000000     1.15266    
H1       H      0.365740000000     0.298910000000     0.860270000000     0.0795143  
H2       H      0.344470000000     0.226660000000     0.787240000000     0.0423998  
H3       H      0.260670000000     0.174680000000     0.788240000000     0.0361699  
H4       H      0.194320000000     0.220160000000     0.822520000000     0.0380176  
H5       H      0.358250000000     0.264890000000     0.720110000000     0.0474892  
H6       H      0.371930000000     0.334720000000     0.789490000000     0.0592493  
H7       H      0.288990000000     0.308110000000     0.752980000000     0.0150412  
H8       H      0.218160000000     0.180450000000     0.722880000000     0.0381112  
H9       H      0.209060000000     0.259380000000     0.757310000000     0.0346845  
H10      H      0.328430000000     0.346210000000     0.850010000000     0.0736923  
H11      H      0.205600000000     0.151530000000     0.187630000000     0.0745705  
H12      H      0.275720000000     0.171910000000     0.269750000000     0.0408591  
H13      H      0.336730000000     0.249660000000     0.270270000000     0.0355976  
H14      H      0.295810000000     0.310180000000     0.218720000000     0.0394192  
H15      H      0.227970000000     0.165640000000     0.329760000000     0.0462723  
H16      H      0.159660000000     0.153070000000     0.249180000000     0.0592624  
H17      H      0.190540000000     0.230220000000     0.281000000000     0.0170676  
H18      H      0.324960000000     0.292350000000     0.328990000000     0.0370939  
H19      H      0.246730000000     0.302720000000     0.276530000000     0.0337207  
H20      H      0.157740000000     0.189860000000     0.180460000000     0.0733855  
H21      H      0.063380000000     0.335710000000     0.420680000000     0.0774311  
H22      H      0.143840000000     0.306640000000     0.445360000000     0.0422084  
H23      H      0.198890000000     0.367950000000     0.537000000000     0.0361151  
H24      H      0.145110000000     0.389850000000     0.624710000000     0.0368408  
H25      H      0.120920000000     0.253410000000     0.482250000000     0.0491072  
H26      H      0.037620000000     0.278420000000     0.441540000000     0.0636315  
H27      H      0.067650000000     0.287920000000     0.553270000000     0.018716   
H28      H      0.210580000000     0.339440000000     0.611690000000     0.0341829  
H29      H      0.122310000000     0.330540000000     0.639120000000     0.0382412  
H30      H      0.013570000000     0.325950000000     0.479390000000     0.0789738  
H31      H      0.303030000000     0.417810000000     0.578200000000     0.0655485  
H32      H      0.316940000000     0.333860000000     0.617060000000     0.0428911  
H33      H      0.298120000000     0.360510000000     0.498120000000     0.0363935  
H34      H      0.349830000000     0.424920000000     0.462580000000     0.0265436  
H35      H      0.378860000000     0.321530000000     0.626350000000     0.0479248  
H36      H      0.316560000000     0.412240000000     0.663320000000     0.0589122  
H37      H      0.400250000000     0.396700000000     0.640380000000     0.0194642  
H38      H      0.330710000000     0.335850000000     0.434480000000     0.0353931  
H39      H      0.396110000000     0.391160000000     0.435090000000     0.0411966  
H40      H      0.348220000000     0.458540000000     0.616850000000     0.0688099  
H41      H      0.393260000000     0.163680000000     0.381550000000     0.0695908  
H42      H      0.470620000000     0.131200000000     0.428060000000     0.0449883  
H43      H      0.501330000000     0.155700000000     0.546090000000     0.0385488  
H44      H      0.431660000000     0.179430000000     0.600750000000     0.0380237  
H45      H      0.444360000000     0.072610000000     0.416860000000     0.047196   
H46      H      0.377340000000     0.104100000000     0.360420000000     0.0607996  
H47      H      0.371720000000     0.085330000000     0.481760000000     0.0192131  
H48      H      0.487400000000     0.114910000000     0.609890000000     0.0414166  
H49      H      0.401440000000     0.122210000000     0.605420000000     0.0342271  
H50      H      0.333970000000     0.133670000000     0.402880000000     0.0740912  
H51      H      0.265900000000     0.026100000000     0.554430000000     0.0669948  
H52      H      0.258020000000     0.108590000000     0.601970000000     0.0382699  
H53      H      0.266660000000     0.088010000000     0.479550000000     0.0377284  
H54      H      0.212170000000     0.025820000000     0.444300000000     0.0277015  
H55      H      0.197920000000     0.121690000000     0.623230000000     0.0466616  
H56      H      0.258180000000     0.028130000000     0.641340000000     0.06018    
H57      H      0.174270000000     0.046470000000     0.630600000000     0.0214696  
H58      H      0.230070000000     0.116160000000     0.423930000000     0.0370078  
H59      H      0.164390000000     0.060900000000     0.427100000000     0.0401246  
H60      H      0.222270000000     0.984600000000     0.594460000000     0.0666977  
H61      H      0.143680000000     0.306350000000     0.144040000000     0.0700247  
H62      H      0.118330000000     0.384930000000     0.102790000000     0.0479921  
H63      H      0.150630000000     0.416270000000     0.976760000000     0.0388451  
H64      H      0.166730000000     0.348510000000     0.919830000000     0.0345397  
H65      H      0.053670000000     0.364920000000     0.105330000000     0.0432116  
H66      H      0.078200000000     0.294960000000     0.156920000000     0.0587412  
H67      H      0.065510000000     0.299540000000     0.034620000000     0.0169981  
H68      H      0.103840000000     0.406220000000     0.916230000000     0.0409484  
H69      H      0.103310000000     0.325020000000     0.922400000000     0.0339562  
H70      H      0.108720000000     0.254920000000     0.111820000000     0.0758054  
H71      H      0.360120000000     0.460970000000     0.918780000000     0.0746025  
H72      H      0.358360000000     0.376400000000     0.955740000000     0.0443395  
H73      H      0.395730000000     0.346610000000     0.058810000000     0.036545   
H74      H      0.403250000000     0.406540000000     0.144900000000     0.0372937  
H75      H      0.292450000000     0.378010000000     0.954700000000     0.0389671  
H76      H      0.297790000000     0.468620000000     0.937060000000     0.0599509  
H77      H      0.298850000000     0.435740000000     0.041310000000     0.017515   
H78      H      0.354820000000     0.329610000000     0.125100000000     0.0326746  
H79      H      0.337670000000     0.408970000000     0.143020000000     0.0357456  
H80      H      0.346410000000     0.502790000000     0.979300000000     0.0716135  
H81      H      0.517790000000     0.171100000000     0.033020000000     0.0684531  
H82      H      0.443750000000     0.215610000000     0.998350000000     0.0426479  
H83      H      0.392280000000     0.162900000000     0.915600000000     0.034926   
H84      H      0.383290000000     0.081960000000     0.943630000000     0.0372425  
H85      H      0.416630000000     0.223620000000     0.076450000000     0.0422087  
H86      H      0.500920000000     0.202350000000     0.103310000000     0.0583223  
H87      H      0.420940000000     0.145050000000     0.108130000000     0.020369   
H88      H      0.329610000000     0.143160000000     0.935550000000     0.0389654  
H89      H      0.356120000000     0.093060000000     0.020120000000     0.0365335  
H90      H      0.509220000000     0.143620000000     0.111720000000     0.0763107  
H91      H      0.065000000000     0.115220000000     0.888510000000     0.0760039  
H92      H      0.113140000000     0.162540000000     0.981720000000     0.0400609  
H93      H      0.152530000000     0.130160000000     0.081660000000     0.0335212  
H94      H      0.168870000000     0.050260000000     0.057160000000     0.0373551  
H95      H      0.153190000000     0.185380000000     0.917650000000     0.0404244  
H96      H      0.111170000000     0.136070000000     0.830440000000     0.0603159  
H97      H      0.176560000000     0.107640000000     0.894020000000     0.0166476  
H98      H      0.218160000000     0.127070000000     0.078460000000     0.0285839  
H99      H      0.209680000000     0.070650000000     0.992610000000     0.0333817  
H100     H      0.097780000000     0.075590000000     0.841540000000     0.0773039  
H101     H      0.365730000000     0.798910000000     0.860270000000     0.0795379  
H102     H      0.344470000000     0.726660000000     0.787240000000     0.0424007  
H103     H      0.260670000000     0.674690000000     0.788240000000     0.0361606  
H104     H      0.194320000000     0.720150000000     0.822520000000     0.0380099  
H105     H      0.358250000000     0.764890000000     0.720120000000     0.0474951  
H106     H      0.371930000000     0.834720000000     0.789490000000     0.0592593  
H107     H      0.288990000000     0.808110000000     0.752980000000     0.0150333  
H108     H      0.218160000000     0.680450000000     0.722880000000     0.0381011  
H109     H      0.209060000000     0.759380000000     0.757310000000     0.0346836  
H110     H      0.328430000000     0.846210000000     0.850010000000     0.0736957  
H111     H      0.205600000000     0.651530000000     0.187630000000     0.0745532  
H112     H      0.275720000000     0.671910000000     0.269750000000     0.0408456  
H113     H      0.336730000000     0.749660000000     0.270270000000     0.0355744  
H114     H      0.295810000000     0.810180000000     0.218720000000     0.0394152  
H115     H      0.227970000000     0.665640000000     0.329760000000     0.0462558  
H116     H      0.159660000000     0.653070000000     0.249180000000     0.0592431  
H117     H      0.190540000000     0.730220000000     0.281000000000     0.0170687  
H118     H      0.324960000000     0.792350000000     0.328990000000     0.037062   
H119     H      0.246730000000     0.802720000000     0.276530000000     0.0337136  
H120     H      0.157740000000     0.689870000000     0.180460000000     0.0733618  
H121     H      0.063380000000     0.835710000000     0.420680000000     0.0774185  
H122     H      0.143840000000     0.806640000000     0.445360000000     0.0421986  
H123     H      0.198890000000     0.867950000000     0.537000000000     0.0360956  
H124     H      0.145110000000     0.889850000000     0.624710000000     0.0368181  
H125     H      0.120920000000     0.753410000000     0.482250000000     0.0491053  
H126     H      0.037620000000     0.778420000000     0.441540000000     0.0636283  
H127     H      0.067650000000     0.787920000000     0.553270000000     0.018718   
H128     H      0.210580000000     0.839440000000     0.611690000000     0.0341781  
H129     H      0.122310000000     0.830540000000     0.639120000000     0.0382393  
H130     H      0.013570000000     0.825950000000     0.479390000000     0.0789772  
H131     H      0.303030000000     0.917810000000     0.578200000000     0.0655188  
H132     H      0.316940000000     0.833860000000     0.617060000000     0.0428889  
H133     H      0.298120000000     0.860510000000     0.498120000000     0.0363825  
H134     H      0.349830000000     0.924920000000     0.462580000000     0.0265     
H135     H      0.378860000000     0.821530000000     0.626350000000     0.0479229  
H136     H      0.316560000000     0.912240000000     0.663320000000     0.0588863  
H137     H      0.400250000000     0.896690000000     0.640380000000     0.0194551  
H138     H      0.330710000000     0.835850000000     0.434480000000     0.0353789  
H139     H      0.396110000000     0.891160000000     0.435090000000     0.0411792  
H140     H      0.348220000000     0.958540000000     0.616850000000     0.0687486  
H141     H      0.393250000000     0.663680000000     0.381550000000     0.0695987  
H142     H      0.470620000000     0.631200000000     0.428060000000     0.0449839  
H143     H      0.501330000000     0.655700000000     0.546090000000     0.0385447  
H144     H      0.431660000000     0.679430000000     0.600750000000     0.0380209  
H145     H      0.444360000000     0.572610000000     0.416860000000     0.047169   
H146     H      0.377340000000     0.604090000000     0.360420000000     0.0607555  
H147     H      0.371720000000     0.585330000000     0.481760000000     0.0191833  
H148     H      0.487400000000     0.614910000000     0.609890000000     0.0413993  
H149     H      0.401440000000     0.622220000000     0.605420000000     0.0342097  
H150     H      0.333970000000     0.633670000000     0.402880000000     0.0740778  
H151     H      0.265900000000     0.526100000000     0.554430000000     0.0670116  
H152     H      0.258020000000     0.608590000000     0.601970000000     0.0382687  
H153     H      0.266660000000     0.588010000000     0.479550000000     0.0377116  
H154     H      0.212170000000     0.525820000000     0.444300000000     0.0276456  
H155     H      0.197920000000     0.621690000000     0.623230000000     0.0466551  
H156     H      0.258180000000     0.528130000000     0.641340000000     0.060187   
H157     H      0.174270000000     0.546470000000     0.630600000000     0.021412   
H158     H      0.230070000000     0.616160000000     0.423930000000     0.0369877  
H159     H      0.164390000000     0.560900000000     0.427100000000     0.040101   
H160     H      0.222270000000     0.484600000000     0.594460000000     0.0669346  
H161     H      0.143670000000     0.806350000000     0.144040000000     0.0700504  
H162     H      0.118330000000     0.884930000000     0.102800000000     0.047948   
H163     H      0.150630000000     0.916270000000     0.976760000000     0.0387841  
H164     H      0.166720000000     0.848510000000     0.919830000000     0.0345377  
H165     H      0.053670000000     0.864920000000     0.105330000000     0.0431875  
H166     H      0.078200000000     0.794960000000     0.156920000000     0.0587452  
H167     H      0.065510000000     0.799540000000     0.034620000000     0.0169993  
H168     H      0.103840000000     0.906220000000     0.916230000000     0.0408974  
H169     H      0.103300000000     0.825020000000     0.922400000000     0.0339573  
H170     H      0.108720000000     0.754920000000     0.111820000000     0.075816   
H171     H      0.360120000000     0.960960000000     0.918780000000     0.0746506  
H172     H      0.358360000000     0.876390000000     0.955740000000     0.0443284  
H173     H      0.395720000000     0.846610000000     0.058810000000     0.0365649  
H174     H      0.403250000000     0.906540000000     0.144900000000     0.0372513  
H175     H      0.292450000000     0.878010000000     0.954700000000     0.0389608  
H176     H      0.297790000000     0.968620000000     0.937060000000     0.0599433  
H177     H      0.298850000000     0.935740000000     0.041310000000     0.0174701  
H178     H      0.354810000000     0.829610000000     0.125100000000     0.0326892  
H179     H      0.337670000000     0.908970000000     0.143020000000     0.0356944  
H180     H      0.346410000000     0.002790000000     0.979300000000     0.0719093  
H181     H      0.517790000000     0.671100000000     0.033020000000     0.0684564  
H182     H      0.443750000000     0.715610000000     0.998350000000     0.0426545  
H183     H      0.392280000000     0.662900000000     0.915600000000     0.0349084  
H184     H      0.383290000000     0.581960000000     0.943630000000     0.0372128  
H185     H      0.416630000000     0.723620000000     0.076450000000     0.0422175  
H186     H      0.500920000000     0.702350000000     0.103310000000     0.0583227  
H187     H      0.420940000000     0.645050000000     0.108130000000     0.020357   
H188     H      0.329610000000     0.643160000000     0.935550000000     0.0389457  
H189     H      0.356120000000     0.593060000000     0.020120000000     0.0365128  
H190     H      0.509220000000     0.643620000000     0.111720000000     0.0763119  
H191     H      0.065000000000     0.615210000000     0.888510000000     0.0760314  
H192     H      0.113140000000     0.662540000000     0.981720000000     0.0400486  
H193     H      0.152530000000     0.630160000000     0.081660000000     0.0335126  
H194     H      0.168870000000     0.550260000000     0.057160000000     0.0373092  
H195     H      0.153180000000     0.685380000000     0.917650000000     0.0403956  
H196     H      0.111170000000     0.636060000000     0.830440000000     0.060351   
H197     H      0.176560000000     0.607640000000     0.894020000000     0.0166381  
H198     H      0.218160000000     0.627070000000     0.078460000000     0.0285706  
H199     H      0.209690000000     0.570660000000     0.992610000000     0.0333428  
H200     H      0.097780000000     0.575600000000     0.841540000000     0.0773092  
H201     H      0.865740000000     0.298910000000     0.860270000000     0.0795247  
H202     H      0.844470000000     0.226660000000     0.787240000000     0.0424157  
H203     H      0.760670000000     0.174680000000     0.788240000000     0.0361599  
H204     H      0.694320000000     0.220150000000     0.822520000000     0.0380133  
H205     H      0.858250000000     0.264890000000     0.720120000000     0.0475074  
H206     H      0.871930000000     0.334720000000     0.789490000000     0.0592684  
H207     H      0.788990000000     0.308110000000     0.752980000000     0.0150389  
H208     H      0.718160000000     0.180450000000     0.722880000000     0.038107   
H209     H      0.709050000000     0.259380000000     0.757310000000     0.0346812  
H210     H      0.828430000000     0.346210000000     0.850010000000     0.0736974  
H211     H      0.705600000000     0.151530000000     0.187630000000     0.0745661  
H212     H      0.775720000000     0.171910000000     0.269750000000     0.0408547  
H213     H      0.836730000000     0.249660000000     0.270270000000     0.0356021  
H214     H      0.795810000000     0.310180000000     0.218720000000     0.0394207  
H215     H      0.727970000000     0.165640000000     0.329760000000     0.0462696  
H216     H      0.659660000000     0.153070000000     0.249180000000     0.0592636  
H217     H      0.690540000000     0.230220000000     0.281000000000     0.0170779  
H218     H      0.824950000000     0.292350000000     0.328990000000     0.0370995  
H219     H      0.746730000000     0.302730000000     0.276530000000     0.0337126  
H220     H      0.657740000000     0.189870000000     0.180460000000     0.0733705  
H221     H      0.563380000000     0.335710000000     0.420680000000     0.0774561  
H222     H      0.643840000000     0.306640000000     0.445360000000     0.0422095  
H223     H      0.698890000000     0.367950000000     0.537000000000     0.0361136  
H224     H      0.645110000000     0.389850000000     0.624710000000     0.0368387  
H225     H      0.620920000000     0.253410000000     0.482250000000     0.0491157  
H226     H      0.537620000000     0.278420000000     0.441540000000     0.0636731  
H227     H      0.567650000000     0.287920000000     0.553270000000     0.0187331  
H228     H      0.710580000000     0.339440000000     0.611690000000     0.0341841  
H229     H      0.622310000000     0.330540000000     0.639120000000     0.0382555  
H230     H      0.513570000000     0.325950000000     0.479390000000     0.0790307  
H231     H      0.803030000000     0.417810000000     0.578200000000     0.0655569  
H232     H      0.816940000000     0.333860000000     0.617060000000     0.0428805  
H233     H      0.798120000000     0.360510000000     0.498120000000     0.0363939  
H234     H      0.849830000000     0.424920000000     0.462580000000     0.0265436  
H235     H      0.878850000000     0.321530000000     0.626350000000     0.0479532  
H236     H      0.816570000000     0.412240000000     0.663320000000     0.0589337  
H237     H      0.900260000000     0.396700000000     0.640380000000     0.0194864  
H238     H      0.830710000000     0.335850000000     0.434480000000     0.0354012  
H239     H      0.896110000000     0.391160000000     0.435090000000     0.0412137  
H240     H      0.848220000000     0.458540000000     0.616850000000     0.068824   
H241     H      0.893260000000     0.163680000000     0.381550000000     0.069595   
H242     H      0.970620000000     0.131200000000     0.428060000000     0.0450356  
H243     H      0.001330000000     0.155700000000     0.546090000000     0.0383668  
H244     H      0.931660000000     0.179430000000     0.600750000000     0.0380728  
H245     H      0.944360000000     0.072610000000     0.416860000000     0.0472281  
H246     H      0.877340000000     0.104100000000     0.360420000000     0.0607975  
H247     H      0.871720000000     0.085340000000     0.481760000000     0.0192205  
H248     H      0.987400000000     0.114910000000     0.609890000000     0.0414292  
H249     H      0.901440000000     0.122210000000     0.605420000000     0.0342476  
H250     H      0.833960000000     0.133670000000     0.402880000000     0.0740483  
H251     H      0.765900000000     0.026100000000     0.554430000000     0.0669868  
H252     H      0.758020000000     0.108590000000     0.601970000000     0.0382697  
H253     H      0.766660000000     0.088010000000     0.479550000000     0.0377292  
H254     H      0.712170000000     0.025820000000     0.444300000000     0.027703   
H255     H      0.697920000000     0.121690000000     0.623230000000     0.0466658  
H256     H      0.758190000000     0.028130000000     0.641340000000     0.060161   
H257     H      0.674270000000     0.046470000000     0.630600000000     0.0214776  
H258     H      0.730070000000     0.116160000000     0.423930000000     0.0370102  
H259     H      0.664390000000     0.060900000000     0.427100000000     0.0401317  
H260     H      0.722270000000     0.984600000000     0.594460000000     0.0666909  
H261     H      0.643680000000     0.306350000000     0.144040000000     0.0700151  
H262     H      0.618330000000     0.384930000000     0.102800000000     0.0479769  
H263     H      0.650630000000     0.416270000000     0.976760000000     0.038835   
H264     H      0.666730000000     0.348510000000     0.919830000000     0.0345437  
H265     H      0.553670000000     0.364920000000     0.105330000000     0.0432254  
H266     H      0.578190000000     0.294960000000     0.156920000000     0.0587253  
H267     H      0.565510000000     0.299540000000     0.034620000000     0.0170273  
H268     H      0.603840000000     0.406220000000     0.916230000000     0.0409484  
H269     H      0.603300000000     0.325020000000     0.922400000000     0.0339719  
H270     H      0.608720000000     0.254920000000     0.111820000000     0.0757959  
H271     H      0.860120000000     0.460970000000     0.918780000000     0.0746211  
H272     H      0.858360000000     0.376400000000     0.955740000000     0.0443383  
H273     H      0.895720000000     0.346610000000     0.058810000000     0.0365763  
H274     H      0.903240000000     0.406540000000     0.144900000000     0.0373045  
H275     H      0.792450000000     0.378010000000     0.954700000000     0.0389671  
H276     H      0.797790000000     0.468620000000     0.937060000000     0.0599207  
H277     H      0.798850000000     0.435740000000     0.041310000000     0.0175242  
H278     H      0.854820000000     0.329610000000     0.125100000000     0.0326957  
H279     H      0.837670000000     0.408970000000     0.143020000000     0.0357387  
H280     H      0.846420000000     0.502790000000     0.979300000000     0.0716198  
H281     H      0.017790000000     0.171100000000     0.033020000000     0.0681819  
H282     H      0.943750000000     0.215610000000     0.998350000000     0.0426827  
H283     H      0.892280000000     0.162900000000     0.915600000000     0.0349407  
H284     H      0.883290000000     0.081960000000     0.943630000000     0.037247   
H285     H      0.916620000000     0.223620000000     0.076450000000     0.0422351  
H286     H      0.000910000000     0.202350000000     0.103310000000     0.0580489  
H287     H      0.920940000000     0.145050000000     0.108130000000     0.0204322  
H288     H      0.829610000000     0.143160000000     0.935550000000     0.0389632  
H289     H      0.856120000000     0.093060000000     0.020120000000     0.0365373  
H290     H      0.009220000000     0.143620000000     0.111720000000     0.076032   
H291     H      0.565000000000     0.115210000000     0.888510000000     0.0760573  
H292     H      0.613130000000     0.162540000000     0.981720000000     0.0400456  
H293     H      0.652520000000     0.130160000000     0.081660000000     0.0335185  
H294     H      0.668870000000     0.050260000000     0.057160000000     0.0373566  
H295     H      0.653180000000     0.185380000000     0.917650000000     0.040401   
H296     H      0.611170000000     0.136070000000     0.830440000000     0.0603369  
H297     H      0.676560000000     0.107640000000     0.894020000000     0.0166559  
H298     H      0.718160000000     0.127070000000     0.078460000000     0.0285765  
H299     H      0.709690000000     0.070660000000     0.992610000000     0.0333777  
H300     H      0.597780000000     0.075590000000     0.841540000000     0.0773291  
H301     H      0.865730000000     0.798910000000     0.860270000000     0.0795594  
H302     H      0.844470000000     0.726660000000     0.787240000000     0.0424052  
H303     H      0.760660000000     0.674690000000     0.788240000000     0.0361728  
H304     H      0.694330000000     0.720160000000     0.822520000000     0.0380321  
H305     H      0.858250000000     0.764890000000     0.720110000000     0.0475025  
H306     H      0.871930000000     0.834720000000     0.789490000000     0.0592759  
H307     H      0.788990000000     0.808110000000     0.752980000000     0.0150375  
H308     H      0.718160000000     0.680450000000     0.722880000000     0.0381127  
H309     H      0.709060000000     0.759380000000     0.757310000000     0.0346918  
H310     H      0.828430000000     0.846210000000     0.850010000000     0.0737032  
H311     H      0.705600000000     0.651530000000     0.187630000000     0.0745616  
H312     H      0.775720000000     0.671910000000     0.269750000000     0.0408501  
H313     H      0.836730000000     0.749660000000     0.270270000000     0.035589   
H314     H      0.795810000000     0.810180000000     0.218720000000     0.03942    
H315     H      0.727970000000     0.665640000000     0.329760000000     0.0462589  
H316     H      0.659660000000     0.653070000000     0.249180000000     0.059259   
H317     H      0.690540000000     0.730220000000     0.281000000000     0.0170703  
H318     H      0.824960000000     0.792350000000     0.328990000000     0.037073   
H319     H      0.746730000000     0.802720000000     0.276530000000     0.0337155  
H320     H      0.657740000000     0.689860000000     0.180460000000     0.0733871  
H321     H      0.563380000000     0.835710000000     0.420680000000     0.0774378  
H322     H      0.643840000000     0.806640000000     0.445360000000     0.0422022  
H323     H      0.698890000000     0.867950000000     0.537000000000     0.0360945  
H324     H      0.645110000000     0.889850000000     0.624710000000     0.0368224  
H325     H      0.620920000000     0.753410000000     0.482250000000     0.0491169  
H326     H      0.537610000000     0.778420000000     0.441540000000     0.0636601  
H327     H      0.567650000000     0.787920000000     0.553270000000     0.0187397  
H328     H      0.710580000000     0.839440000000     0.611690000000     0.034178   
H329     H      0.622310000000     0.830540000000     0.639120000000     0.0382528  
H330     H      0.513570000000     0.825950000000     0.479390000000     0.0790253  
H331     H      0.803030000000     0.917810000000     0.578200000000     0.0655193  
H332     H      0.816940000000     0.833860000000     0.617060000000     0.0428873  
H333     H      0.798120000000     0.860510000000     0.498120000000     0.0363803  
H334     H      0.849830000000     0.924920000000     0.462580000000     0.0265068  
H335     H      0.878860000000     0.821530000000     0.626350000000     0.0479396  
H336     H      0.816560000000     0.912240000000     0.663320000000     0.05889    
H337     H      0.900250000000     0.896690000000     0.640380000000     0.0194733  
H338     H      0.830710000000     0.835850000000     0.434480000000     0.0353838  
H339     H      0.896110000000     0.891160000000     0.435090000000     0.0412037  
H340     H      0.848220000000     0.958540000000     0.616850000000     0.0687566  
H341     H      0.893250000000     0.663680000000     0.381550000000     0.0696215  
H342     H      0.970620000000     0.631200000000     0.428060000000     0.0450343  
H343     H      0.001330000000     0.655700000000     0.546090000000     0.0383636  
H344     H      0.931660000000     0.679430000000     0.600750000000     0.0380694  
H345     H      0.944360000000     0.572610000000     0.416860000000     0.0472036  
H346     H      0.877340000000     0.604090000000     0.360420000000     0.060772   
H347     H      0.871720000000     0.585330000000     0.481760000000     0.0191839  
H348     H      0.987400000000     0.614910000000     0.609890000000     0.0414127  
H349     H      0.901440000000     0.622220000000     0.605420000000     0.03423    
H350     H      0.833970000000     0.633670000000     0.402880000000     0.0740813  
H351     H      0.765900000000     0.526100000000     0.554430000000     0.0670127  
H352     H      0.758020000000     0.608590000000     0.601970000000     0.038269   
H353     H      0.766670000000     0.588010000000     0.479550000000     0.0376939  
H354     H      0.712180000000     0.525820000000     0.444300000000     0.0276469  
H355     H      0.697920000000     0.621690000000     0.623230000000     0.0466554  
H356     H      0.758180000000     0.528130000000     0.641340000000     0.0601895  
H357     H      0.674260000000     0.546470000000     0.630600000000     0.0214255  
H358     H      0.730070000000     0.616160000000     0.423930000000     0.0369779  
H359     H      0.664390000000     0.560900000000     0.427100000000     0.0401122  
H360     H      0.722270000000     0.484600000000     0.594460000000     0.0669335  
H361     H      0.643680000000     0.806350000000     0.144040000000     0.0700177  
H362     H      0.618330000000     0.884920000000     0.102790000000     0.0479654  
H363     H      0.650630000000     0.916270000000     0.976760000000     0.0387944  
H364     H      0.666730000000     0.848510000000     0.919830000000     0.0345405  
H365     H      0.553670000000     0.864920000000     0.105330000000     0.0432271  
H366     H      0.578200000000     0.794960000000     0.156920000000     0.0587513  
H367     H      0.565510000000     0.799540000000     0.034620000000     0.0170271  
H368     H      0.603840000000     0.906220000000     0.916230000000     0.0409254  
H369     H      0.603310000000     0.825020000000     0.922400000000     0.0339769  
H370     H      0.608720000000     0.754920000000     0.111820000000     0.0758085  
H371     H      0.860120000000     0.960970000000     0.918780000000     0.0746609  
H372     H      0.858360000000     0.876400000000     0.955740000000     0.0443463  
H373     H      0.895720000000     0.846610000000     0.058810000000     0.0365865  
H374     H      0.903250000000     0.906540000000     0.144900000000     0.0372926  
H375     H      0.792450000000     0.878010000000     0.954700000000     0.038965   
H376     H      0.797790000000     0.968620000000     0.937060000000     0.0599458  
H377     H      0.798850000000     0.935730000000     0.041310000000     0.0174642  
H378     H      0.854810000000     0.829610000000     0.125100000000     0.0326974  
H379     H      0.837670000000     0.908970000000     0.143020000000     0.0357176  
H380     H      0.846410000000     0.002790000000     0.979300000000     0.0719082  
H381     H      0.017790000000     0.671100000000     0.033020000000     0.0681818  
H382     H      0.943750000000     0.715610000000     0.998350000000     0.0426808  
H383     H      0.892280000000     0.662900000000     0.915600000000     0.0349302  
H384     H      0.883290000000     0.581960000000     0.943630000000     0.0372191  
H385     H      0.916630000000     0.723620000000     0.076450000000     0.0422276  
H386     H      0.000920000000     0.702350000000     0.103310000000     0.058044   
H387     H      0.920940000000     0.645050000000     0.108130000000     0.0204225  
H388     H      0.829610000000     0.643160000000     0.935550000000     0.0389489  
H389     H      0.856120000000     0.593060000000     0.020120000000     0.0365141  
H390     H      0.009220000000     0.643620000000     0.111720000000     0.0760288  
H391     H      0.565000000000     0.615220000000     0.888510000000     0.0760389  
H392     H      0.613140000000     0.662540000000     0.981720000000     0.0400604  
H393     H      0.652530000000     0.630160000000     0.081660000000     0.0335221  
H394     H      0.668870000000     0.550260000000     0.057160000000     0.0373121  
H395     H      0.653180000000     0.685370000000     0.917650000000     0.0404192  
H396     H      0.611170000000     0.636070000000     0.830440000000     0.0603309  
H397     H      0.676560000000     0.607640000000     0.894020000000     0.0166417  
H398     H      0.718160000000     0.627070000000     0.078460000000     0.0285758  
H399     H      0.709680000000     0.570660000000     0.992610000000     0.0333521  
H400     H      0.597780000000     0.575600000000     0.841540000000     0.0773197  
N1       N      0.264200000000     0.263820000000     0.830340000000    -0.189599   
N2       N      0.289040000000     0.221090000000     0.715080000000    -0.177135   
N3       N      0.245660000000     0.247120000000     0.210420000000    -0.190225   
N4       N      0.279280000000     0.227440000000     0.335570000000    -0.177284   
N5       N      0.098960000000     0.356680000000     0.549860000000    -0.174648   
N6       N      0.173570000000     0.296960000000     0.537730000000    -0.172431   
N7       N      0.397540000000     0.406950000000     0.537070000000    -0.17996    
N8       N      0.354760000000     0.321500000000     0.529590000000    -0.216328   
N9       N      0.397210000000     0.152730000000     0.513170000000    -0.186561   
N10      N      0.470280000000     0.090910000000     0.512860000000    -0.16064    
N11      N      0.170020000000     0.040610000000     0.526330000000    -0.179403   
N12      N      0.213550000000     0.126100000000     0.523590000000    -0.214285   
N13      N      0.140060000000     0.320890000000     0.011590000000    -0.188209   
N14      N      0.080580000000     0.393420000000     0.015000000000    -0.161122   
N15      N      0.374670000000     0.435620000000     0.058270000000    -0.181972   
N16      N      0.320190000000     0.351310000000     0.040370000000    -0.22924    
N17      N      0.432240000000     0.115900000000     0.015920000000    -0.174838   
N18      N      0.370140000000     0.186580000000     0.006420000000    -0.174765   
N19      N      0.134800000000     0.075540000000     0.971520000000    -0.182111   
N20      N      0.189080000000     0.158850000000     0.997840000000    -0.23302    
N21      N      0.264200000000     0.763820000000     0.830340000000    -0.189624   
N22      N      0.289030000000     0.721090000000     0.715090000000    -0.17709    
N23      N      0.245660000000     0.747120000000     0.210420000000    -0.190222   
N24      N      0.279280000000     0.727440000000     0.335570000000    -0.177347   
N25      N      0.098960000000     0.856680000000     0.549860000000    -0.174647   
N26      N      0.173570000000     0.796960000000     0.537730000000    -0.172433   
N27      N      0.397540000000     0.906950000000     0.537070000000    -0.179968   
N28      N      0.354760000000     0.821500000000     0.529590000000    -0.216333   
N29      N      0.397210000000     0.652730000000     0.513170000000    -0.186576   
N30      N      0.470280000000     0.590910000000     0.512860000000    -0.16064    
N31      N      0.170020000000     0.540610000000     0.526330000000    -0.179444   
N32      N      0.213550000000     0.626090000000     0.523590000000    -0.214228   
N33      N      0.140060000000     0.820890000000     0.011590000000    -0.188244   
N34      N      0.080580000000     0.893420000000     0.015000000000    -0.161148   
N35      N      0.374670000000     0.935620000000     0.058270000000    -0.182027   
N36      N      0.320190000000     0.851320000000     0.040370000000    -0.22918    
N37      N      0.432240000000     0.615900000000     0.015920000000    -0.17482    
N38      N      0.370130000000     0.686570000000     0.006420000000    -0.174781   
N39      N      0.134800000000     0.575530000000     0.971520000000    -0.182139   
N40      N      0.189080000000     0.658850000000     0.997850000000    -0.23305    
N41      N      0.764200000000     0.263820000000     0.830340000000    -0.189618   
N42      N      0.789030000000     0.221090000000     0.715090000000    -0.177089   
N43      N      0.745660000000     0.247120000000     0.210420000000    -0.190224   
N44      N      0.779270000000     0.227440000000     0.335570000000    -0.177284   
N45      N      0.598960000000     0.356680000000     0.549860000000    -0.174644   
N46      N      0.673570000000     0.296960000000     0.537730000000    -0.172431   
N47      N      0.897540000000     0.406950000000     0.537070000000    -0.179952   
N48      N      0.854760000000     0.321500000000     0.529590000000    -0.216317   
N49      N      0.897210000000     0.152730000000     0.513170000000    -0.18654    
N50      N      0.970280000000     0.090910000000     0.512860000000    -0.160705   
N51      N      0.670020000000     0.040610000000     0.526330000000    -0.179403   
N52      N      0.713550000000     0.126100000000     0.523590000000    -0.214282   
N53      N      0.640060000000     0.320890000000     0.011590000000    -0.188243   
N54      N      0.580580000000     0.393420000000     0.015000000000    -0.161119   
N55      N      0.874670000000     0.435620000000     0.058270000000    -0.181986   
N56      N      0.820180000000     0.351320000000     0.040370000000    -0.229174   
N57      N      0.932240000000     0.115900000000     0.015920000000    -0.174804   
N58      N      0.870130000000     0.186580000000     0.006420000000    -0.174818   
N59      N      0.634800000000     0.075540000000     0.971520000000    -0.182099   
N60      N      0.689070000000     0.158850000000     0.997850000000    -0.233017   
N61      N      0.764200000000     0.763820000000     0.830340000000    -0.1896     
N62      N      0.789040000000     0.721090000000     0.715080000000    -0.177132   
N63      N      0.745660000000     0.747120000000     0.210420000000    -0.190222   
N64      N      0.779280000000     0.727440000000     0.335570000000    -0.177346   
N65      N      0.598960000000     0.856680000000     0.549860000000    -0.174645   
N66      N      0.673570000000     0.796960000000     0.537730000000    -0.172437   
N67      N      0.897540000000     0.906950000000     0.537070000000    -0.179955   
N68      N      0.854760000000     0.821500000000     0.529590000000    -0.216331   
N69      N      0.897210000000     0.652730000000     0.513170000000    -0.186578   
N70      N      0.970280000000     0.590910000000     0.512860000000    -0.160704   
N71      N      0.670020000000     0.540610000000     0.526330000000    -0.179442   
N72      N      0.713550000000     0.626090000000     0.523590000000    -0.214262   
N73      N      0.640060000000     0.820890000000     0.011590000000    -0.188203   
N74      N      0.580580000000     0.893420000000     0.015000000000    -0.161136   
N75      N      0.874670000000     0.935620000000     0.058270000000    -0.182017   
N76      N      0.820190000000     0.851320000000     0.040370000000    -0.229167   
N77      N      0.932240000000     0.615900000000     0.015920000000    -0.174778   
N78      N      0.870140000000     0.686570000000     0.006420000000    -0.174733   
N79      N      0.634800000000     0.575530000000     0.971520000000    -0.182133   
N80      N      0.689080000000     0.658850000000     0.997840000000    -0.233024   
O1       O      0.035160000000     0.443340000000     0.962780000000    -0.395449   
O2       O      0.461240000000     0.055580000000     0.963740000000    -0.40144    
O3       O      0.060620000000     0.038060000000     0.941090000000    -0.413106   
O4       O      0.433790000000     0.461700000000     0.984820000000    -0.411656   
O5       O      0.447930000000     0.473700000000     0.090450000000    -0.404327   
O6       O      0.079780000000     0.042710000000     0.046140000000    -0.406739   
O7       O      0.482110000000     0.068600000000     0.067190000000    -0.395101   
O8       O      0.044820000000     0.448830000000     0.070160000000    -0.393369   
O9       O      0.063200000000     0.408740000000     0.486770000000    -0.394258   
O10      O      0.503130000000     0.029170000000     0.468900000000    -0.393394   
O11      O      0.102280000000     0.003920000000     0.475150000000    -0.403705   
O12      O      0.465810000000     0.436010000000     0.480640000000    -0.407877   
O13      O      0.465960000000     0.442290000000     0.588490000000    -0.405987   
O14      O      0.101630000000     0.011730000000     0.582820000000    -0.406987   
O15      O      0.503630000000     0.037600000000     0.576440000000    -0.390986   
O16      O      0.065810000000     0.418090000000     0.594120000000    -0.393746   
O17      O      0.293190000000     0.287910000000     0.931710000000    -0.469733   
O18      O      0.271180000000     0.282510000000     0.115580000000    -0.48448    
O19      O      0.338210000000     0.253620000000     0.030700000000    -0.460088   
O20      O      0.222710000000     0.316670000000     0.007960000000    -0.465948   
O21      O      0.172880000000     0.253590000000     0.026630000000    -0.473148   
O22      O      0.287910000000     0.191970000000     0.006190000000    -0.478243   
O23      O      0.229110000000     0.214710000000     0.109200000000    -0.478662   
O24      O      0.230090000000     0.235090000000     0.925220000000    -0.479078   
O25      O      0.310440000000     0.254870000000     0.433560000000    -0.477368   
O26      O      0.320570000000     0.246830000000     0.617860000000    -0.476983   
O27      O      0.368950000000     0.222590000000     0.525960000000    -0.453739   
O28      O      0.254670000000     0.286210000000     0.543580000000    -0.479497   
O29      O      0.201200000000     0.226740000000     0.519160000000    -0.447105   
O30      O      0.315320000000     0.160870000000     0.514880000000    -0.479404   
O31      O      0.255290000000     0.195920000000     0.617490000000    -0.475466   
O32      O      0.252670000000     0.196410000000     0.432350000000    -0.47951    
O33      O      0.035160000000     0.943340000000     0.962780000000    -0.395423   
O34      O      0.461240000000     0.555580000000     0.963740000000    -0.401769   
O35      O      0.060620000000     0.538060000000     0.941090000000    -0.413309   
O36      O      0.433790000000     0.961700000000     0.984820000000    -0.411612   
O37      O      0.447930000000     0.973690000000     0.090450000000    -0.404436   
O38      O      0.079780000000     0.542710000000     0.046140000000    -0.406781   
O39      O      0.482110000000     0.568600000000     0.067190000000    -0.395171   
O40      O      0.044820000000     0.948830000000     0.070160000000    -0.393511   
O41      O      0.063190000000     0.908740000000     0.486770000000    -0.394298   
O42      O      0.503130000000     0.529170000000     0.468900000000    -0.393648   
O43      O      0.102280000000     0.503920000000     0.475150000000    -0.403911   
O44      O      0.465810000000     0.936010000000     0.480640000000    -0.407906   
O45      O      0.465950000000     0.942290000000     0.588490000000    -0.405958   
O46      O      0.101630000000     0.511730000000     0.582820000000    -0.407193   
O47      O      0.503630000000     0.537600000000     0.576440000000    -0.391212   
O48      O      0.065810000000     0.918090000000     0.594120000000    -0.393718   
O49      O      0.293180000000     0.787910000000     0.931720000000    -0.469844   
O50      O      0.271180000000     0.782510000000     0.115580000000    -0.484492   
O51      O      0.338210000000     0.753620000000     0.030700000000    -0.46011    
O52      O      0.222710000000     0.816670000000     0.007960000000    -0.465856   
O53      O      0.172880000000     0.753590000000     0.026630000000    -0.473135   
O54      O      0.287910000000     0.691970000000     0.006200000000    -0.478277   
O55      O      0.229110000000     0.714710000000     0.109200000000    -0.478662   
O56      O      0.230090000000     0.735090000000     0.925220000000    -0.479101   
O57      O      0.310440000000     0.754860000000     0.433560000000    -0.477479   
O58      O      0.320570000000     0.746830000000     0.617860000000    -0.476971   
O59      O      0.368950000000     0.722590000000     0.525960000000    -0.453738   
O60      O      0.254670000000     0.786210000000     0.543580000000    -0.4795     
O61      O      0.201200000000     0.726740000000     0.519160000000    -0.447094   
O62      O      0.315320000000     0.660870000000     0.514880000000    -0.479402   
O63      O      0.255290000000     0.695920000000     0.617490000000    -0.475444   
O64      O      0.252670000000     0.696420000000     0.432350000000    -0.479609   
O65      O      0.535160000000     0.443340000000     0.962780000000    -0.395254   
O66      O      0.961240000000     0.055580000000     0.963740000000    -0.401485   
O67      O      0.560620000000     0.038060000000     0.941090000000    -0.413033   
O68      O      0.933790000000     0.461700000000     0.984820000000    -0.411694   
O69      O      0.947930000000     0.473700000000     0.090450000000    -0.404126   
O70      O      0.579780000000     0.042710000000     0.046140000000    -0.40681    
O71      O      0.982110000000     0.068600000000     0.067190000000    -0.394984   
O72      O      0.544820000000     0.448830000000     0.070160000000    -0.393335   
O73      O      0.563200000000     0.408740000000     0.486770000000    -0.39424    
O74      O      0.003130000000     0.029170000000     0.468900000000    -0.393629   
O75      O      0.602280000000     0.003920000000     0.475150000000    -0.40372    
O76      O      0.965810000000     0.436010000000     0.480640000000    -0.407747   
O77      O      0.965960000000     0.442290000000     0.588490000000    -0.405863   
O78      O      0.601630000000     0.011730000000     0.582820000000    -0.407002   
O79      O      0.003630000000     0.037600000000     0.576440000000    -0.391225   
O80      O      0.565800000000     0.418090000000     0.594120000000    -0.39374    
O81      O      0.793180000000     0.287910000000     0.931720000000    -0.469821   
O82      O      0.771180000000     0.282510000000     0.115580000000    -0.484497   
O83      O      0.838210000000     0.253620000000     0.030700000000    -0.460043   
O84      O      0.722710000000     0.316670000000     0.007960000000    -0.465921   
O85      O      0.672880000000     0.253590000000     0.026630000000    -0.47313    
O86      O      0.787910000000     0.191970000000     0.006200000000    -0.478276   
O87      O      0.729110000000     0.214710000000     0.109200000000    -0.478653   
O88      O      0.730090000000     0.235090000000     0.925220000000    -0.47909    
O89      O      0.810440000000     0.254870000000     0.433560000000    -0.477362   
O90      O      0.820570000000     0.246830000000     0.617860000000    -0.476964   
O91      O      0.868950000000     0.222590000000     0.525960000000    -0.453718   
O92      O      0.754670000000     0.286210000000     0.543580000000    -0.479497   
O93      O      0.701200000000     0.226740000000     0.519160000000    -0.4471     
O94      O      0.815320000000     0.160870000000     0.514880000000    -0.479402   
O95      O      0.755290000000     0.195920000000     0.617490000000    -0.475446   
O96      O      0.752670000000     0.196410000000     0.432350000000    -0.479505   
O97      O      0.535160000000     0.943340000000     0.962780000000    -0.395345   
O98      O      0.961240000000     0.555580000000     0.963740000000    -0.401718   
O99      O      0.560620000000     0.538060000000     0.941090000000    -0.413199   
O100     O      0.933790000000     0.961700000000     0.984820000000    -0.411675   
O101     O      0.947930000000     0.973700000000     0.090450000000    -0.404362   
O102     O      0.579780000000     0.542710000000     0.046140000000    -0.406759   
O103     O      0.982110000000     0.568600000000     0.067190000000    -0.394977   
O104     O      0.544820000000     0.948820000000     0.070160000000    -0.393534   
O105     O      0.563190000000     0.908740000000     0.486770000000    -0.39429    
O106     O      0.003130000000     0.529170000000     0.468900000000    -0.393882   
O107     O      0.602280000000     0.503920000000     0.475150000000    -0.403927   
O108     O      0.965810000000     0.936010000000     0.480640000000    -0.407773   
O109     O      0.965950000000     0.942290000000     0.588490000000    -0.405831   
O110     O      0.601630000000     0.511730000000     0.582820000000    -0.407218   
O111     O      0.003630000000     0.537600000000     0.576440000000    -0.391443   
O112     O      0.565810000000     0.918090000000     0.594120000000    -0.393703   
O113     O      0.793190000000     0.787910000000     0.931710000000    -0.469772   
O114     O      0.771180000000     0.782510000000     0.115580000000    -0.484475   
O115     O      0.838210000000     0.753620000000     0.030700000000    -0.460063   
O116     O      0.722710000000     0.816670000000     0.007960000000    -0.465939   
O117     O      0.672880000000     0.753590000000     0.026630000000    -0.47314    
O118     O      0.787910000000     0.691970000000     0.006190000000    -0.47823    
O119     O      0.729110000000     0.714710000000     0.109200000000    -0.478658   
O120     O      0.730090000000     0.735090000000     0.925220000000    -0.479019   
O121     O      0.810440000000     0.754860000000     0.433560000000    -0.477482   
O122     O      0.820570000000     0.746830000000     0.617860000000    -0.47699    
O123     O      0.868950000000     0.722590000000     0.525960000000    -0.453757   
O124     O      0.754670000000     0.786210000000     0.543580000000    -0.479519   
O125     O      0.701200000000     0.726740000000     0.519160000000    -0.447157   
O126     O      0.815330000000     0.660870000000     0.514880000000    -0.479363   
O127     O      0.755290000000     0.695920000000     0.617490000000    -0.475461   
O128     O      0.752670000000     0.696420000000     0.432350000000    -0.479613   


