data_structure

_audit_creation_method RASPA-1.0
_audit_creation_date 2023-5-22
_audit_author_name 'Poobodin Mano'

_cell_length_a    42.6587
_cell_length_b    42.7666
_cell_length_c    43.0535
_cell_angle_alpha 90
_cell_angle_beta  90
_cell_angle_gamma 90
_cell_volume      78545.4

_symmetry_cell_setting          triclinic
_symmetry_space_group_name_Hall 'P 1'
_symmetry_space_group_name_H-M  'P 1'
_symmetry_Int_Tables_number     1

_symmetry_equiv_pos_as_xyz 'x,y,z'

loop_
_atom_site_label
_atom_site_type_symbol
_atom_site_fract_x
_atom_site_fract_y
_atom_site_fract_z
_atom_site_charge
C1       C      0.390310000000     0.944400000000     0.003010000000     0.402302   
C2       C      0.390740000000     0.820440000000     0.493050000000     0.400937   
C3       C      0.390650000000     0.879150000000     0.059070000000     0.40262    
C4       C      0.390640000000     0.889010000000     0.436170000000     0.402057   
C5       C      0.391560000000     0.821970000000     0.250490000000     0.40328    
C6       C      0.389940000000     0.946080000000     0.242720000000     0.39922    
C7       C      0.391130000000     0.877760000000     0.186020000000     0.403152   
C8       C      0.390480000000     0.886480000000     0.308980000000     0.401839   
C9       C      0.387750000000     0.069800000000     0.989640000000     0.402254   
C10      C      0.386080000000     0.193750000000     0.998860000000     0.400371   
C11      C      0.386840000000     0.135030000000     0.433080000000     0.40151    
C12      C      0.386660000000     0.126000000000     0.056240000000     0.401454   
C13      C      0.387590000000     0.074410000000     0.248920000000     0.398943   
C14      C      0.383950000000     0.198630000000     0.241960000000     0.401877   
C15      C      0.386170000000     0.134080000000     0.183010000000     0.401121   
C16      C      0.385660000000     0.141830000000     0.306250000000     0.401672   
C17      C      0.929550000000     0.623360000000     0.501020000000     0.400037   
C18      C      0.806660000000     0.628890000000     0.480760000000     0.40229    
C19      C      0.858100000000     0.625830000000     0.051500000000     0.398816   
C20      C      0.876540000000     0.625350000000     0.428820000000     0.396867   
C21      C      0.815770000000     0.622250000000     0.245180000000     0.400437   
C22      C      0.939810000000     0.625220000000     0.232540000000     0.401427   
C23      C      0.871790000000     0.624600000000     0.177640000000     0.397963   
C24      C      0.885090000000     0.623700000000     0.300980000000     0.397789   
C25      C      0.058260000000     0.622900000000     0.508010000000     0.399377   
C26      C      0.182670000000     0.625730000000     0.514930000000     0.402029   
C27      C      0.124530000000     0.622520000000     0.450770000000     0.398254   
C28      C      0.117440000000     0.626140000000     0.074570000000     0.397417   
C29      C      0.064530000000     0.624880000000     0.255290000000     0.400657   
C30      C      0.188330000000     0.623040000000     0.270070000000     0.400953   
C31      C      0.133390000000     0.625810000000     0.200560000000     0.39736    
C32      C      0.118770000000     0.621970000000     0.323700000000     0.398709   
C33      C      0.621410000000     0.057550000000     0.485600000000     0.397444   
C34      C      0.627730000000     0.181690000000     0.994810000000     0.40105    
C35      C      0.622990000000     0.125740000000     0.428880000000     0.401719   
C36      C      0.626300000000     0.116580000000     0.051930000000     0.401054   
C37      C      0.628830000000     0.178280000000     0.238080000000     0.400634   
C38      C      0.620620000000     0.054310000000     0.243700000000     0.401822   
C39      C      0.622610000000     0.118290000000     0.302330000000     0.401618   
C40      C      0.626670000000     0.111540000000     0.179140000000     0.401622   
C41      C      0.614710000000     0.929160000000     0.490900000000     0.397622   
C42      C      0.608700000000     0.805480000000     0.476020000000     0.399421   
C43      C      0.612970000000     0.858240000000     0.044560000000     0.399517   
C44      C      0.610110000000     0.873690000000     0.421770000000     0.399105   
C45      C      0.607880000000     0.807830000000     0.242770000000     0.400917   
C46      C      0.613290000000     0.930740000000     0.224690000000     0.402069   
C47      C      0.612250000000     0.861720000000     0.172180000000     0.398814   
C48      C      0.609020000000     0.879330000000     0.294650000000     0.399669   
C49      C      0.320360000000     0.384980000000     0.006950000000     0.401762   
C50      C      0.444940000000     0.379300000000     0.004450000000     0.400402   
C51      C      0.379070000000     0.320750000000     0.008770000000     0.40092    
C52      C      0.385600000000     0.445050000000     0.002860000000     0.399137   
C53      C      0.327660000000     0.390620000000     0.251520000000     0.399249   
C54      C      0.452010000000     0.384690000000     0.243790000000     0.399898   
C55      C      0.388020000000     0.325770000000     0.239670000000     0.402493   
C56      C      0.393800000000     0.448650000000     0.254930000000     0.402475   
C57      C      0.309510000000     0.636530000000     0.514780000000     0.402133   
C58      C      0.432920000000     0.632330000000     0.498230000000     0.401695   
C59      C      0.373150000000     0.696310000000     0.507630000000     0.400156   
C60      C      0.368840000000     0.571740000000     0.504500000000     0.3983     
C61      C      0.315660000000     0.635400000000     0.265450000000     0.400166   
C62      C      0.440340000000     0.634470000000     0.260480000000     0.398607   
C63      C      0.378080000000     0.697270000000     0.264320000000     0.402976   
C64      C      0.376590000000     0.573300000000     0.262140000000     0.40246    
C65      C      0.691040000000     0.377730000000     0.018320000000     0.400468   
C66      C      0.568720000000     0.355610000000     0.008500000000     0.40052    
C67      C      0.640560000000     0.305200000000     0.015260000000     0.40163    
C68      C      0.618470000000     0.427410000000     0.010940000000     0.401326   
C69      C      0.643060000000     0.304550000000     0.231400000000     0.399974   
C70      C      0.634710000000     0.428430000000     0.242850000000     0.397571   
C71      C      0.701400000000     0.369370000000     0.236410000000     0.401587   
C72      C      0.576920000000     0.362210000000     0.238260000000     0.40047    
C73      C      0.680590000000     0.618810000000     0.488960000000     0.401985   
C74      C      0.556560000000     0.608730000000     0.489930000000     0.401542   
C75      C      0.612880000000     0.675660000000     0.481110000000     0.400118   
C76      C      0.624380000000     0.553000000000     0.497590000000     0.400701   
C77      C      0.688910000000     0.626540000000     0.239280000000     0.400487   
C78      C      0.565440000000     0.612410000000     0.251350000000     0.399163   
C79      C      0.620560000000     0.680850000000     0.243450000000     0.399247   
C80      C      0.635310000000     0.557080000000     0.246680000000     0.397675   
C81      C      0.194060000000     0.395330000000     0.996950000000     0.400934   
C82      C      0.069650000000     0.391330000000     0.005170000000     0.399548   
C83      C      0.127420000000     0.394710000000     0.439430000000     0.399151   
C84      C      0.136970000000     0.391110000000     0.062940000000     0.398665   
C85      C      0.199240000000     0.388360000000     0.247530000000     0.398982   
C86      C      0.074600000000     0.390660000000     0.256310000000     0.39907    
C87      C      0.141660000000     0.391850000000     0.313690000000     0.398912   
C88      C      0.131670000000     0.388370000000     0.190210000000     0.398654   
C89      C      0.818930000000     0.381250000000     0.014710000000     0.40005    
C90      C      0.943270000000     0.387670000000     0.023740000000     0.400161   
C91      C      0.876780000000     0.385020000000     0.080790000000     0.398272   
C92      C      0.885770000000     0.384890000000     0.457050000000     0.397722   
C93      C      0.824110000000     0.384930000000     0.261210000000     0.400724   
C94      C      0.948170000000     0.388600000000     0.274800000000     0.399717   
C95      C      0.879100000000     0.386380000000     0.329690000000     0.397803   
C96      C      0.892460000000     0.386630000000     0.206330000000     0.398525   
C97      C      0.871300000000     0.415160000000     0.379240000000    -0.0120072  
C98      C      0.871080000000     0.356540000000     0.378570000000    -0.0118798  
C99      C      0.892490000000     0.414660000000     0.407960000000    -0.0123418  
C100     C      0.892120000000     0.355930000000     0.407400000000    -0.0123104  
C101     C      0.872000000000     0.414690000000     0.130220000000    -0.0120602  
C102     C      0.874020000000     0.356030000000     0.130750000000    -0.0120421  
C103     C      0.896290000000     0.415680000000     0.156440000000    -0.0121172  
C104     C      0.898270000000     0.357100000000     0.156930000000    -0.0119347  
C105     C      0.024410000000     0.420160000000     0.257580000000    -0.0130015  
C106     C      0.024600000000     0.361260000000     0.255870000000    -0.0124789  
C107     C      0.997520000000     0.419030000000     0.281250000000    -0.0108185  
C108     C      0.998800000000     0.360610000000     0.280430000000    -0.0104824  
C109     C      0.120200000000     0.366060000000     0.389900000000    -0.0117171  
C110     C      0.125010000000     0.424520000000     0.389780000000    -0.0122414  
C111     C      0.144520000000     0.363860000000     0.364030000000    -0.0115607  
C112     C      0.148160000000     0.422410000000     0.362510000000    -0.0123072  
C113     C      0.126500000000     0.358510000000     0.140860000000    -0.012151   
C114     C      0.121110000000     0.416930000000     0.141270000000    -0.0118298  
C115     C      0.146540000000     0.360710000000     0.111290000000    -0.0123639  
C116     C      0.142390000000     0.419260000000     0.112920000000    -0.0116159  
C117     C      0.018710000000     0.419350000000     0.504480000000    -0.0127078  
C118     C      0.020460000000     0.360490000000     0.505600000000    -0.0124457  
C119     C      0.992200000000     0.418880000000     0.028450000000    -0.0108665  
C120     C      0.994290000000     0.360430000000     0.029830000000    -0.0106754  
C121     C      0.750200000000     0.344800000000     0.254160000000    -0.00899819 
C122     C      0.751750000000     0.391010000000     0.217980000000    -0.0108494  
C123     C      0.773960000000     0.360480000000     0.275430000000    -0.0108817  
C124     C      0.775210000000     0.407360000000     0.239760000000    -0.0116325  
C125     C      0.624210000000     0.479160000000     0.217440000000    -0.0116945  
C126     C      0.628850000000     0.476220000000     0.275560000000    -0.0128666  
C127     C      0.644590000000     0.508300000000     0.217280000000    -0.0113721  
C128     C      0.646610000000     0.507670000000     0.275460000000    -0.0124379  
C129     C      0.737460000000     0.408330000000     0.002690000000    -0.00997149 
C130     C      0.741030000000     0.367830000000     0.044990000000    -0.0108536  
C131     C      0.769560000000     0.398040000000     0.490290000000    -0.0114981  
C132     C      0.770440000000     0.354320000000     0.529830000000    -0.010371   
C133     C      0.628760000000     0.500260000000     0.474500000000    -0.0110497  
C134     C      0.632760000000     0.507260000000     0.532400000000    -0.0123071  
C135     C      0.605360000000     0.473900000000     0.979360000000    -0.0113472  
C136     C      0.611100000000     0.478890000000     0.037010000000    -0.0119913  
C137     C      0.488710000000     0.634690000000     0.228530000000    -0.0116952  
C138     C      0.492280000000     0.633720000000     0.286830000000    -0.0125129  
C139     C      0.512950000000     0.608450000000     0.226790000000    -0.0118699  
C140     C      0.517850000000     0.608530000000     0.284700000000    -0.0119013  
C141     C      0.505210000000     0.605540000000     0.462400000000    -0.0121453  
C142     C      0.507710000000     0.604410000000     0.020450000000    -0.010669   
C143     C      0.480070000000     0.631350000000     0.464000000000    -0.012456   
C144     C      0.485540000000     0.632130000000     0.022170000000    -0.0107141  
C145     C      0.248850000000     0.361700000000     0.260010000000    -0.0109399  
C146     C      0.248070000000     0.408500000000     0.224300000000    -0.0115924  
C147     C      0.278010000000     0.374730000000     0.276160000000    -0.0109626  
C148     C      0.279440000000     0.419270000000     0.237970000000    -0.0111945  
C149     C      0.525920000000     0.359870000000     0.210360000000    -0.0116054  
C150     C      0.527650000000     0.357100000000     0.268400000000    -0.0113088  
C151     C      0.500720000000     0.385350000000     0.212130000000    -0.0122336  
C152     C      0.503440000000     0.383290000000     0.270480000000    -0.0120169  
C153     C      0.372500000000     0.522190000000     0.289510000000    -0.0121303  
C154     C      0.374430000000     0.524730000000     0.231220000000    -0.010689   
C155     C      0.396810000000     0.495670000000     0.288920000000    -0.0118769  
C156     C      0.400610000000     0.500700000000     0.231030000000    -0.0109993  
C157     C      0.271290000000     0.361220000000     0.988830000000    -0.0110604  
C158     C      0.270740000000     0.403500000000     0.029720000000    -0.0105079  
C159     C      0.242890000000     0.376110000000     0.473150000000    -0.0106226  
C160     C      0.243950000000     0.419870000000     0.512420000000    -0.0111242  
C161     C      0.520280000000     0.349510000000     0.476590000000    -0.0120601  
C162     C      0.517310000000     0.349960000000     0.034450000000    -0.0104147  
C163     C      0.495180000000     0.375390000000     0.475080000000    -0.0127271  
C164     C      0.494850000000     0.377580000000     0.033610000000    -0.0116698  
C165     C      0.392890000000     0.495530000000     0.030190000000    -0.0116257  
C166     C      0.386060000000     0.494610000000     0.472350000000    -0.0123747  
C167     C      0.368360000000     0.521300000000     0.032800000000    -0.011549   
C168     C      0.362880000000     0.522090000000     0.474750000000    -0.0125846  
C169     C      0.626200000000     0.761870000000     0.272090000000    -0.0104795  
C170     C      0.583100000000     0.756740000000     0.232560000000    -0.0109414  
C171     C      0.641100000000     0.731630000000     0.260240000000    -0.0114966  
C172     C      0.599580000000     0.728230000000     0.218450000000    -0.0106473  
C173     C      0.591840000000     0.725450000000     0.000240000000    -0.0102953  
C174     C      0.622930000000     0.722940000000     0.949860000000    -0.0118526  
C175     C      0.580460000000     0.756450000000     0.486400000000    -0.0120613  
C176     C      0.633050000000     0.756320000000     0.458530000000    -0.0114487  
C177     C      0.637380000000     0.892870000000     0.343060000000    -0.0114733  
C178     C      0.578950000000     0.890160000000     0.342980000000    -0.0117167  
C179     C      0.638830000000     0.872450000000     0.372040000000    -0.0117648  
C180     C      0.579550000000     0.870820000000     0.372970000000    -0.0124048  
C181     C      0.584030000000     0.866050000000     0.122450000000    -0.0118743  
C182     C      0.643240000000     0.862470000000     0.123560000000    -0.0125764  
C183     C      0.583800000000     0.846550000000     0.092890000000    -0.0112083  
C184     C      0.642260000000     0.844550000000     0.092670000000    -0.0117333  
C185     C      0.609430000000     0.229170000000     0.219320000000    -0.0105883  
C186     C      0.650660000000     0.225880000000     0.261370000000    -0.0113986  
C187     C      0.627560000000     0.256180000000     0.204260000000    -0.010985   
C188     C      0.666820000000     0.254730000000     0.247860000000    -0.0100857  
C189     C      0.646930000000     0.002630000000     0.245170000000    -0.0118248  
C190     C      0.588100000000     0.006190000000     0.246010000000    -0.0120984  
C191     C      0.644980000000     0.978960000000     0.218680000000    -0.0112188  
C192     C      0.586410000000     0.982020000000     0.219840000000    -0.011319   
C193     C      0.666950000000     0.257640000000     0.495520000000    -0.0101504  
C194     C      0.625660000000     0.254080000000     0.036990000000    -0.0115102  
C195     C      0.650770000000     0.231490000000     0.477320000000    -0.0111619  
C196     C      0.607360000000     0.230480000000     0.017360000000    -0.0104215  
C197     C      0.591610000000     0.117030000000     0.351090000000    -0.0121834  
C198     C      0.650400000000     0.111080000000     0.352060000000    -0.0114725  
C199     C      0.593500000000     0.137330000000     0.380400000000    -0.0116529  
C200     C      0.652030000000     0.133060000000     0.379730000000    -0.0109753  
C201     C      0.656740000000     0.121630000000     0.100690000000    -0.0120301  
C202     C      0.597630000000     0.121220000000     0.101450000000    -0.0113621  
C203     C      0.657000000000     0.102400000000     0.130730000000    -0.011805   
C204     C      0.598330000000     0.100650000000     0.130240000000    -0.0112917  
C205     C      0.589530000000     0.009460000000     0.978500000000    -0.0120823  
C206     C      0.648320000000     0.006430000000     0.479240000000    -0.0123491  
C207     C      0.587800000000     0.980110000000     0.998860000000    -0.0125553  
C208     C      0.646480000000     0.977100000000     0.499610000000    -0.0120819  
C209     C      0.235160000000     0.642240000000     0.297900000000    -0.0107725  
C210     C      0.239310000000     0.599140000000     0.258350000000    -0.010399   
C211     C      0.266090000000     0.656270000000     0.286050000000    -0.0118746  
C212     C      0.266650000000     0.616010000000     0.242910000000    -0.0104642  
C213     C      0.262310000000     0.621820000000     0.044430000000    -0.0106784  
C214     C      0.259300000000     0.660780000000     0.500650000000    -0.00980936 
C215     C      0.233790000000     0.604520000000     0.031230000000    -0.0105371  
C216     C      0.229660000000     0.645010000000     0.488660000000    -0.0109553  
C217     C      0.129820000000     0.651230000000     0.401110000000    -0.011585   
C218     C      0.132440000000     0.592530000000     0.401870000000    -0.0122917  
C219     C      0.108120000000     0.649900000000     0.373010000000    -0.0117883  
C220     C      0.112030000000     0.591420000000     0.372490000000    -0.0123367  
C221     C      0.115580000000     0.656560000000     0.123950000000    -0.0126017  
C222     C      0.113460000000     0.597880000000     0.124740000000    -0.0120791  
C223     C      0.138900000000     0.655950000000     0.151240000000    -0.0125074  
C224     C      0.138050000000     0.597390000000     0.150510000000    -0.0116503  
C225     C      0.738400000000     0.612680000000     0.213430000000    -0.0105044  
C226     C      0.736920000000     0.654780000000     0.254320000000    -0.010006   
C227     C      0.766080000000     0.597280000000     0.230120000000    -0.0109675  
C228     C      0.766910000000     0.641690000000     0.268870000000    -0.0112813  
C229     C      0.014390000000     0.595890000000     0.252330000000    -0.0123167  
C230     C      0.014810000000     0.654910000000     0.252730000000    -0.0128382  
C231     C      0.989980000000     0.596580000000     0.226430000000    -0.010174   
C232     C      0.989630000000     0.654950000000     0.227370000000    -0.0104987  
C233     C      0.729730000000     0.641100000000     0.009080000000    -0.0098899  
C234     C      0.730160000000     0.594590000000     0.972840000000    -0.0109679  
C235     C      0.756500000000     0.655730000000     0.490410000000    -0.0110943  
C236     C      0.758710000000     0.608080000000     0.456190000000    -0.0102012  
C237     C      0.874020000000     0.595400000000     0.379740000000    -0.0124193  
C238     C      0.876570000000     0.654410000000     0.379130000000    -0.0121541  
C239     C      0.893870000000     0.594460000000     0.350110000000    -0.0119013  
C240     C      0.896560000000     0.652770000000     0.349640000000    -0.0119752  
C241     C      0.871670000000     0.654800000000     0.128510000000    -0.0123445  
C242     C      0.871560000000     0.595740000000     0.127770000000    -0.0122787  
C243     C      0.849190000000     0.654820000000     0.100790000000    -0.0116393  
C244     C      0.848670000000     0.596460000000     0.100420000000    -0.0117097  
C245     C      0.009130000000     0.651790000000     0.498070000000    -0.0121156  
C246     C      0.009500000000     0.592900000000     0.997950000000    -0.0137628  
C247     C      0.978100000000     0.651430000000     0.515560000000    -0.0109986  
C248     C      0.977410000000     0.592880000000     0.014080000000    -0.010919   
C249     C      0.371000000000     0.277690000000     0.212790000000    -0.0106755  
C250     C      0.416160000000     0.277070000000     0.250400000000    -0.00998862 
C251     C      0.357680000000     0.248100000000     0.228070000000    -0.0108342  
C252     C      0.403860000000     0.247050000000     0.264850000000    -0.0108686  
C253     C      0.393380000000     0.270920000000     0.033750000000    -0.0105352  
C254     C      0.352770000000     0.272730000000     0.491360000000    -0.010109   
C255     C      0.409100000000     0.242970000000     0.017830000000    -0.0104372  
C256     C      0.366350000000     0.242930000000     0.477150000000    -0.0114774  
C257     C      0.416450000000     0.132590000000     0.383750000000    -0.0118737  
C258     C      0.357410000000     0.129250000000     0.383960000000    -0.0118857  
C259     C      0.414830000000     0.153100000000     0.354770000000    -0.0112851  
C260     C      0.356240000000     0.150050000000     0.355190000000    -0.011258   
C261     C      0.356760000000     0.137990000000     0.133620000000    -0.0118876  
C262     C      0.415860000000     0.138150000000     0.133790000000    -0.0117419  
C263     C      0.357060000000     0.116920000000     0.104990000000    -0.0113951  
C264     C      0.415750000000     0.116890000000     0.105280000000    -0.011598   
C265     C      0.371540000000     0.772970000000     0.228470000000    -0.0100542  
C266     C      0.414380000000     0.772420000000     0.268900000000    -0.0105764  
C267     C      0.355010000000     0.746280000000     0.245180000000    -0.0102675  
C268     C      0.396710000000     0.746910000000     0.286740000000    -0.01093    
C269     C      0.418320000000     0.025490000000     0.255250000000    -0.0122029  
C270     C      0.359500000000     0.024210000000     0.256670000000    -0.0120245  
C271     C      0.418440000000     0.996110000000     0.234880000000    -0.011784   
C272     C      0.359630000000     0.995130000000     0.235990000000    -0.0117654  
C273     C      0.351320000000     0.746370000000     0.489490000000    -0.0103114  
C274     C      0.395390000000     0.745300000000     0.028530000000    -0.0111492  
C275     C      0.368200000000     0.772010000000     0.471370000000    -0.010408   
C276     C      0.413210000000     0.769750000000     0.009200000000    -0.0107691  
C277     C      0.361460000000     0.900690000000     0.387780000000    -0.0115797  
C278     C      0.420140000000     0.899840000000     0.387790000000    -0.0112556  
C279     C      0.360890000000     0.881260000000     0.358050000000    -0.0115261  
C280     C      0.420030000000     0.880570000000     0.357970000000    -0.0117731  
C281     C      0.420620000000     0.866480000000     0.137790000000    -0.0111606  
C282     C      0.361980000000     0.864740000000     0.138010000000    -0.0110887  
C283     C      0.420120000000     0.885640000000     0.107950000000    -0.0116887  
C284     C      0.360940000000     0.883700000000     0.108050000000    -0.011626   
C285     C      0.359040000000     0.019560000000     0.485540000000    -0.0115262  
C286     C      0.417820000000     0.020580000000     0.983020000000    -0.0119786  
C287     C      0.360570000000     0.993720000000     0.509960000000    -0.0113587  
C288     C      0.419340000000     0.994510000000     0.007250000000    -0.0111092  
C289     C      0.390310000000     0.944400000000     0.503010000000     0.402328   
C290     C      0.390740000000     0.820440000000     0.993050000000     0.400886   
C291     C      0.390650000000     0.879150000000     0.559070000000     0.402697   
C292     C      0.390640000000     0.889010000000     0.936170000000     0.402084   
C293     C      0.391560000000     0.821970000000     0.750480000000     0.403287   
C294     C      0.389940000000     0.946080000000     0.742720000000     0.399221   
C295     C      0.391130000000     0.877760000000     0.686020000000     0.403149   
C296     C      0.390480000000     0.886480000000     0.808980000000     0.401841   
C297     C      0.387750000000     0.069800000000     0.489640000000     0.402326   
C298     C      0.386080000000     0.193750000000     0.498860000000     0.400842   
C299     C      0.386840000000     0.135030000000     0.933080000000     0.401483   
C300     C      0.386660000000     0.126000000000     0.556240000000     0.401387   
C301     C      0.387590000000     0.074410000000     0.748920000000     0.398943   
C302     C      0.383950000000     0.198630000000     0.741960000000     0.401875   
C303     C      0.386170000000     0.134080000000     0.683010000000     0.401121   
C304     C      0.385660000000     0.141830000000     0.806250000000     0.401673   
C305     C      0.929550000000     0.623360000000     0.001020000000     0.400917   
C306     C      0.806660000000     0.628890000000     0.980760000000     0.402214   
C307     C      0.858100000000     0.625830000000     0.551500000000     0.398861   
C308     C      0.876540000000     0.625350000000     0.928830000000     0.39694    
C309     C      0.815770000000     0.622250000000     0.745180000000     0.400434   
C310     C      0.939810000000     0.625220000000     0.732540000000     0.401434   
C311     C      0.871790000000     0.624600000000     0.677640000000     0.397992   
C312     C      0.885090000000     0.623700000000     0.800980000000     0.397688   
C313     C      0.058260000000     0.622900000000     0.008010000000     0.399368   
C314     C      0.182670000000     0.625730000000     0.014930000000     0.402067   
C315     C      0.124530000000     0.622520000000     0.950770000000     0.398267   
C316     C      0.117440000000     0.626140000000     0.574570000000     0.397373   
C317     C      0.064530000000     0.624880000000     0.755290000000     0.400657   
C318     C      0.188330000000     0.623040000000     0.770070000000     0.400997   
C319     C      0.133390000000     0.625810000000     0.700560000000     0.397359   
C320     C      0.118770000000     0.621970000000     0.823700000000     0.398709   
C321     C      0.621410000000     0.057550000000     0.985590000000     0.397398   
C322     C      0.627730000000     0.181690000000     0.494810000000     0.401092   
C323     C      0.622990000000     0.125740000000     0.928880000000     0.4017     
C324     C      0.626300000000     0.116580000000     0.551930000000     0.401091   
C325     C      0.628830000000     0.178280000000     0.738080000000     0.400634   
C326     C      0.620620000000     0.054310000000     0.743700000000     0.401819   
C327     C      0.622610000000     0.118290000000     0.802330000000     0.40162    
C328     C      0.626670000000     0.111540000000     0.679140000000     0.401621   
C329     C      0.614710000000     0.929160000000     0.990900000000     0.397555   
C330     C      0.608700000000     0.805480000000     0.976020000000     0.399342   
C331     C      0.612970000000     0.858240000000     0.544560000000     0.399555   
C332     C      0.610110000000     0.873690000000     0.921770000000     0.399088   
C333     C      0.607880000000     0.807830000000     0.742770000000     0.400899   
C334     C      0.613290000000     0.930740000000     0.724690000000     0.402069   
C335     C      0.612250000000     0.861720000000     0.672180000000     0.398811   
C336     C      0.609020000000     0.879330000000     0.794660000000     0.399578   
C337     C      0.320360000000     0.384980000000     0.506950000000     0.40133    
C338     C      0.444940000000     0.379300000000     0.504450000000     0.399951   
C339     C      0.379070000000     0.320750000000     0.508770000000     0.400252   
C340     C      0.385600000000     0.445050000000     0.502860000000     0.398683   
C341     C      0.327660000000     0.390620000000     0.751520000000     0.399248   
C342     C      0.452010000000     0.384690000000     0.743790000000     0.3999     
C343     C      0.388020000000     0.325770000000     0.739670000000     0.402495   
C344     C      0.393800000000     0.448650000000     0.754930000000     0.402476   
C345     C      0.309510000000     0.636530000000     0.014780000000     0.402599   
C346     C      0.432920000000     0.632330000000     0.998230000000     0.401053   
C347     C      0.373150000000     0.696310000000     0.007630000000     0.400586   
C348     C      0.368840000000     0.571740000000     0.004500000000     0.398749   
C349     C      0.315660000000     0.635400000000     0.765450000000     0.400146   
C350     C      0.440340000000     0.634470000000     0.760480000000     0.398359   
C351     C      0.378080000000     0.697270000000     0.764320000000     0.402957   
C352     C      0.376590000000     0.573300000000     0.762140000000     0.402439   
C353     C      0.691040000000     0.377730000000     0.518320000000     0.40021    
C354     C      0.568720000000     0.355610000000     0.508500000000     0.400045   
C355     C      0.640560000000     0.305200000000     0.515260000000     0.401184   
C356     C      0.618470000000     0.427410000000     0.510940000000     0.400847   
C357     C      0.643060000000     0.304550000000     0.731400000000     0.399991   
C358     C      0.634710000000     0.428430000000     0.742850000000     0.397593   
C359     C      0.701400000000     0.369370000000     0.736410000000     0.401606   
C360     C      0.576920000000     0.362210000000     0.738260000000     0.400489   
C361     C      0.680590000000     0.618810000000     0.988960000000     0.401581   
C362     C      0.556560000000     0.608730000000     0.989930000000     0.400882   
C363     C      0.612880000000     0.675660000000     0.981110000000     0.399724   
C364     C      0.624380000000     0.553000000000     0.997600000000     0.399984   
C365     C      0.688910000000     0.626540000000     0.739280000000     0.40076    
C366     C      0.565440000000     0.612410000000     0.751350000000     0.399182   
C367     C      0.620560000000     0.680850000000     0.743450000000     0.399271   
C368     C      0.635310000000     0.557080000000     0.746680000000     0.397693   
C369     C      0.194060000000     0.395330000000     0.496950000000     0.401303   
C370     C      0.069650000000     0.391330000000     0.505170000000     0.399458   
C371     C      0.127420000000     0.394710000000     0.939430000000     0.399209   
C372     C      0.136970000000     0.391110000000     0.562930000000     0.398729   
C373     C      0.199240000000     0.388360000000     0.747530000000     0.398949   
C374     C      0.074600000000     0.390660000000     0.756310000000     0.399069   
C375     C      0.141660000000     0.391850000000     0.813690000000     0.398797   
C376     C      0.131670000000     0.388370000000     0.690210000000     0.398653   
C377     C      0.818930000000     0.381250000000     0.514710000000     0.400005   
C378     C      0.943270000000     0.387670000000     0.523740000000     0.40011    
C379     C      0.876780000000     0.385020000000     0.580790000000     0.398255   
C380     C      0.885770000000     0.384890000000     0.957040000000     0.397664   
C381     C      0.824110000000     0.384930000000     0.761220000000     0.400725   
C382     C      0.948170000000     0.388600000000     0.774810000000     0.399706   
C383     C      0.879100000000     0.386380000000     0.829690000000     0.397796   
C384     C      0.892460000000     0.386630000000     0.706330000000     0.398531   
C385     C      0.871300000000     0.415160000000     0.879240000000    -0.0120127  
C386     C      0.871080000000     0.356540000000     0.878570000000    -0.0118846  
C387     C      0.892490000000     0.414660000000     0.907960000000    -0.0123267  
C388     C      0.892120000000     0.355930000000     0.907400000000    -0.0122957  
C389     C      0.872000000000     0.414690000000     0.630220000000    -0.0120584  
C390     C      0.874020000000     0.356030000000     0.630750000000    -0.0120282  
C391     C      0.896290000000     0.415680000000     0.656440000000    -0.0121163  
C392     C      0.898270000000     0.357100000000     0.656930000000    -0.0119361  
C393     C      0.024410000000     0.420160000000     0.757580000000    -0.0130046  
C394     C      0.024600000000     0.361260000000     0.755870000000    -0.0124876  
C395     C      0.997520000000     0.419030000000     0.781250000000    -0.0108136  
C396     C      0.998800000000     0.360610000000     0.780430000000    -0.0104426  
C397     C      0.120200000000     0.366060000000     0.889900000000    -0.0117417  
C398     C      0.125010000000     0.424520000000     0.889780000000    -0.012238   
C399     C      0.144520000000     0.363860000000     0.864020000000    -0.0115237  
C400     C      0.148160000000     0.422410000000     0.862510000000    -0.0123068  
C401     C      0.126500000000     0.358510000000     0.640860000000    -0.0121479  
C402     C      0.121110000000     0.416930000000     0.641270000000    -0.0118336  
C403     C      0.146540000000     0.360710000000     0.611290000000    -0.0123761  
C404     C      0.142390000000     0.419260000000     0.612920000000    -0.0116141  
C405     C      0.018710000000     0.419350000000     0.004480000000    -0.0122818  
C406     C      0.020460000000     0.360490000000     0.005600000000    -0.0119792  
C407     C      0.992200000000     0.418880000000     0.528450000000    -0.0107661  
C408     C      0.994290000000     0.360430000000     0.529830000000    -0.0105591  
C409     C      0.750200000000     0.344800000000     0.754160000000    -0.00900435 
C410     C      0.751750000000     0.391010000000     0.717980000000    -0.010865   
C411     C      0.773960000000     0.360480000000     0.775430000000    -0.0109006  
C412     C      0.775210000000     0.407360000000     0.739760000000    -0.0115645  
C413     C      0.624210000000     0.479160000000     0.717440000000    -0.0117011  
C414     C      0.628850000000     0.476220000000     0.775560000000    -0.0128428  
C415     C      0.644590000000     0.508300000000     0.717280000000    -0.0113459  
C416     C      0.646610000000     0.507670000000     0.775460000000    -0.0125018  
C417     C      0.737460000000     0.408330000000     0.502690000000    -0.0107935  
C418     C      0.741030000000     0.367830000000     0.544990000000    -0.0109176  
C419     C      0.769560000000     0.398040000000     0.990290000000    -0.012194   
C420     C      0.770440000000     0.354320000000     0.029830000000    -0.0104063  
C421     C      0.628760000000     0.500260000000     0.974500000000    -0.0112831  
C422     C      0.632760000000     0.507260000000     0.032400000000    -0.0123287  
C423     C      0.605360000000     0.473900000000     0.479360000000    -0.011166   
C424     C      0.611100000000     0.478890000000     0.537010000000    -0.0120468  
C425     C      0.488710000000     0.634690000000     0.728530000000    -0.0117069  
C426     C      0.492280000000     0.633720000000     0.786830000000    -0.0124785  
C427     C      0.512950000000     0.608450000000     0.726790000000    -0.0118644  
C428     C      0.517850000000     0.608530000000     0.784700000000    -0.0119109  
C429     C      0.505210000000     0.605540000000     0.962400000000    -0.0121861  
C430     C      0.507710000000     0.604410000000     0.520450000000    -0.01087    
C431     C      0.480070000000     0.631350000000     0.964000000000    -0.0124976  
C432     C      0.485540000000     0.632130000000     0.522170000000    -0.010912   
C433     C      0.248850000000     0.361700000000     0.760010000000    -0.010935   
C434     C      0.248070000000     0.408500000000     0.724300000000    -0.0115933  
C435     C      0.278010000000     0.374730000000     0.776160000000    -0.0109804  
C436     C      0.279440000000     0.419270000000     0.737970000000    -0.0111935  
C437     C      0.525920000000     0.359870000000     0.710360000000    -0.0116037  
C438     C      0.527650000000     0.357100000000     0.768400000000    -0.0113065  
C439     C      0.500720000000     0.385350000000     0.712130000000    -0.0122328  
C440     C      0.503440000000     0.383290000000     0.770480000000    -0.0120166  
C441     C      0.372500000000     0.522190000000     0.789510000000    -0.0121302  
C442     C      0.374430000000     0.524730000000     0.731220000000    -0.0106912  
C443     C      0.396810000000     0.495670000000     0.788920000000    -0.0118746  
C444     C      0.400610000000     0.500700000000     0.731030000000    -0.010991   
C445     C      0.271290000000     0.361220000000     0.488820000000    -0.0104046  
C446     C      0.270740000000     0.403500000000     0.529720000000    -0.0103647  
C447     C      0.242890000000     0.376110000000     0.973150000000    -0.0104334  
C448     C      0.243950000000     0.419870000000     0.012420000000    -0.010463   
C449     C      0.520280000000     0.349510000000     0.976590000000    -0.0122976  
C450     C      0.517310000000     0.349960000000     0.534450000000    -0.0104455  
C451     C      0.495180000000     0.375390000000     0.975080000000    -0.0129165  
C452     C      0.494850000000     0.377580000000     0.533610000000    -0.0117002  
C453     C      0.392890000000     0.495530000000     0.530190000000    -0.0116574  
C454     C      0.386060000000     0.494610000000     0.972350000000    -0.0125604  
C455     C      0.368360000000     0.521300000000     0.532800000000    -0.0115832  
C456     C      0.362880000000     0.522090000000     0.974750000000    -0.0127881  
C457     C      0.626200000000     0.761870000000     0.772090000000    -0.0104809  
C458     C      0.583100000000     0.756740000000     0.732560000000    -0.0109507  
C459     C      0.641100000000     0.731630000000     0.760240000000    -0.0114934  
C460     C      0.599580000000     0.728230000000     0.718450000000    -0.0106236  
C461     C      0.591840000000     0.725450000000     0.500240000000    -0.0110955  
C462     C      0.622930000000     0.722940000000     0.449850000000    -0.0119256  
C463     C      0.580460000000     0.756450000000     0.986400000000    -0.0129184  
C464     C      0.633050000000     0.756320000000     0.958530000000    -0.0115232  
C465     C      0.637380000000     0.892870000000     0.843060000000    -0.0114591  
C466     C      0.578950000000     0.890160000000     0.842980000000    -0.0116916  
C467     C      0.638830000000     0.872450000000     0.872040000000    -0.0117672  
C468     C      0.579550000000     0.870820000000     0.872960000000    -0.0124248  
C469     C      0.584030000000     0.866050000000     0.622450000000    -0.0118751  
C470     C      0.643240000000     0.862470000000     0.623560000000    -0.0125776  
C471     C      0.583800000000     0.846550000000     0.592890000000    -0.0112067  
C472     C      0.642260000000     0.844550000000     0.592670000000    -0.0117311  
C473     C      0.609430000000     0.229170000000     0.719320000000    -0.0105889  
C474     C      0.650660000000     0.225880000000     0.761370000000    -0.0114039  
C475     C      0.627560000000     0.256180000000     0.704260000000    -0.010983   
C476     C      0.666820000000     0.254730000000     0.747860000000    -0.0100678  
C477     C      0.646930000000     0.002630000000     0.745170000000    -0.0118211  
C478     C      0.588100000000     0.006190000000     0.746010000000    -0.012093   
C479     C      0.644980000000     0.978960000000     0.718680000000    -0.0112233  
C480     C      0.586410000000     0.982020000000     0.719840000000    -0.0113244  
C481     C      0.666950000000     0.257640000000     0.995520000000    -0.0108544  
C482     C      0.625660000000     0.254080000000     0.536990000000    -0.0114675  
C483     C      0.650770000000     0.231490000000     0.977320000000    -0.0110024  
C484     C      0.607360000000     0.230480000000     0.517360000000    -0.0107033  
C485     C      0.591610000000     0.117030000000     0.851090000000    -0.0121971  
C486     C      0.650400000000     0.111080000000     0.852060000000    -0.0114727  
C487     C      0.593500000000     0.137330000000     0.880400000000    -0.0116485  
C488     C      0.652030000000     0.133060000000     0.879730000000    -0.0109741  
C489     C      0.656740000000     0.121630000000     0.600690000000    -0.0120255  
C490     C      0.597630000000     0.121220000000     0.601450000000    -0.0113606  
C491     C      0.657000000000     0.102400000000     0.630730000000    -0.0118182  
C492     C      0.598330000000     0.100650000000     0.630240000000    -0.0112926  
C493     C      0.589530000000     0.009460000000     0.478500000000    -0.0121962  
C494     C      0.648320000000     0.006430000000     0.979240000000    -0.0122446  
C495     C      0.587800000000     0.980110000000     0.498860000000    -0.0121182  
C496     C      0.646480000000     0.977100000000     0.999600000000    -0.0124776  
C497     C      0.235160000000     0.642240000000     0.797900000000    -0.0107292  
C498     C      0.239310000000     0.599140000000     0.758350000000    -0.0103937  
C499     C      0.266090000000     0.656270000000     0.786050000000    -0.0118883  
C500     C      0.266650000000     0.616010000000     0.742910000000    -0.010467   
C501     C      0.262310000000     0.621820000000     0.544430000000    -0.0107511  
C502     C      0.259300000000     0.660780000000     0.000650000000    -0.00892301 
C503     C      0.233790000000     0.604520000000     0.531230000000    -0.0104987  
C504     C      0.229660000000     0.645010000000     0.988660000000    -0.0117016  
C505     C      0.129820000000     0.651230000000     0.901110000000    -0.0115868  
C506     C      0.132440000000     0.592530000000     0.901870000000    -0.0122905  
C507     C      0.108120000000     0.649900000000     0.873010000000    -0.0117872  
C508     C      0.112030000000     0.591420000000     0.872490000000    -0.0123373  
C509     C      0.115580000000     0.656560000000     0.623950000000    -0.0126021  
C510     C      0.113460000000     0.597880000000     0.624740000000    -0.0120789  
C511     C      0.138900000000     0.655950000000     0.651240000000    -0.0125065  
C512     C      0.138050000000     0.597390000000     0.650510000000    -0.0116496  
C513     C      0.738400000000     0.612680000000     0.713430000000    -0.0104667  
C514     C      0.736920000000     0.654780000000     0.754320000000    -0.00994253 
C515     C      0.766080000000     0.597280000000     0.730110000000    -0.0110249  
C516     C      0.766910000000     0.641690000000     0.768870000000    -0.0113044  
C517     C      0.014390000000     0.595890000000     0.752330000000    -0.0123142  
C518     C      0.014810000000     0.654910000000     0.752730000000    -0.0128357  
C519     C      0.989980000000     0.596580000000     0.726430000000    -0.0101752  
C520     C      0.989630000000     0.654950000000     0.727370000000    -0.0104994  
C521     C      0.729730000000     0.641100000000     0.509080000000    -0.0106094  
C522     C      0.730160000000     0.594590000000     0.472830000000    -0.0110293  
C523     C      0.756500000000     0.655730000000     0.990410000000    -0.0118935  
C524     C      0.758710000000     0.608080000000     0.956190000000    -0.0102708  
C525     C      0.874020000000     0.595400000000     0.879740000000    -0.0124303  
C526     C      0.876570000000     0.654410000000     0.879130000000    -0.0121573  
C527     C      0.893870000000     0.594460000000     0.850110000000    -0.0119056  
C528     C      0.896560000000     0.652770000000     0.849640000000    -0.0119997  
C529     C      0.871670000000     0.654800000000     0.628510000000    -0.0123427  
C530     C      0.871560000000     0.595740000000     0.627770000000    -0.0122788  
C531     C      0.849190000000     0.654820000000     0.600790000000    -0.0116358  
C532     C      0.848670000000     0.596460000000     0.600420000000    -0.011706   
C533     C      0.009130000000     0.651790000000     0.998070000000    -0.0131849  
C534     C      0.009500000000     0.592900000000     0.497950000000    -0.0127051  
C535     C      0.978100000000     0.651430000000     0.015560000000    -0.010397   
C536     C      0.977410000000     0.592880000000     0.514080000000    -0.0115124  
C537     C      0.371000000000     0.277690000000     0.712790000000    -0.0106712  
C538     C      0.416160000000     0.277070000000     0.750400000000    -0.0099421  
C539     C      0.357680000000     0.248100000000     0.728070000000    -0.0108364  
C540     C      0.403860000000     0.247050000000     0.764860000000    -0.0109791  
C541     C      0.393380000000     0.270920000000     0.533750000000    -0.0105357  
C542     C      0.352770000000     0.272730000000     0.991360000000    -0.0107768  
C543     C      0.409100000000     0.242970000000     0.517830000000    -0.0106784  
C544     C      0.366350000000     0.242930000000     0.977150000000    -0.011344   
C545     C      0.416450000000     0.132590000000     0.883750000000    -0.0118843  
C546     C      0.357410000000     0.129250000000     0.883960000000    -0.0118882  
C547     C      0.414830000000     0.153100000000     0.854770000000    -0.0112897  
C548     C      0.356240000000     0.150050000000     0.855190000000    -0.0112455  
C549     C      0.356760000000     0.137990000000     0.633620000000    -0.011888   
C550     C      0.415860000000     0.138150000000     0.633790000000    -0.0117434  
C551     C      0.357060000000     0.116920000000     0.604990000000    -0.0113896  
C552     C      0.415750000000     0.116890000000     0.605280000000    -0.0115907  
C553     C      0.371540000000     0.772970000000     0.728470000000    -0.0100476  
C554     C      0.414380000000     0.772420000000     0.768900000000    -0.0105714  
C555     C      0.355010000000     0.746280000000     0.745170000000    -0.0102913  
C556     C      0.396710000000     0.746910000000     0.786740000000    -0.0109086  
C557     C      0.418320000000     0.025490000000     0.755250000000    -0.0122083  
C558     C      0.359500000000     0.024210000000     0.756670000000    -0.0120353  
C559     C      0.418440000000     0.996110000000     0.734880000000    -0.0117822  
C560     C      0.359630000000     0.995130000000     0.736000000000    -0.0117288  
C561     C      0.351320000000     0.746370000000     0.989490000000    -0.011001   
C562     C      0.395390000000     0.745300000000     0.528530000000    -0.0109915  
C563     C      0.368200000000     0.772010000000     0.971370000000    -0.0102574  
C564     C      0.413210000000     0.769750000000     0.509200000000    -0.0115017  
C565     C      0.361460000000     0.900690000000     0.887780000000    -0.0115687  
C566     C      0.420140000000     0.899840000000     0.887790000000    -0.0112678  
C567     C      0.360890000000     0.881260000000     0.858050000000    -0.0115366  
C568     C      0.420030000000     0.880570000000     0.857970000000    -0.011769   
C569     C      0.420620000000     0.866480000000     0.637790000000    -0.0111642  
C570     C      0.361980000000     0.864740000000     0.638010000000    -0.0111016  
C571     C      0.420120000000     0.885640000000     0.607950000000    -0.0116817  
C572     C      0.360940000000     0.883700000000     0.608050000000    -0.0116275  
C573     C      0.359040000000     0.019560000000     0.985540000000    -0.0118761  
C574     C      0.417820000000     0.020580000000     0.483020000000    -0.0116255  
C575     C      0.360570000000     0.993720000000     0.009960000000    -0.0109968  
C576     C      0.419340000000     0.994510000000     0.507250000000    -0.0114751  
Cu1      Cu     0.361670000000     0.882410000000     0.997300000000     0.847307   
Cu2      Cu     0.419550000000     0.882590000000     0.497810000000     0.844784   
Cu3      Cu     0.361860000000     0.883500000000     0.246870000000     0.849219   
Cu4      Cu     0.419730000000     0.884190000000     0.247780000000     0.843114   
Cu5      Cu     0.357920000000     0.131330000000     0.494390000000     0.847779   
Cu6      Cu     0.415780000000     0.132130000000     0.995040000000     0.842417   
Cu7      Cu     0.356900000000     0.135920000000     0.244370000000     0.842506   
Cu8      Cu     0.414760000000     0.137400000000     0.245100000000     0.846399   
Cu9      Cu     0.869230000000     0.654630000000     0.490670000000     0.843346   
Cu10     Cu     0.866900000000     0.596980000000     0.489950000000     0.837704   
Cu11     Cu     0.877210000000     0.652810000000     0.239890000000     0.837976   
Cu12     Cu     0.878410000000     0.595130000000     0.238770000000     0.842037   
Cu13     Cu     0.119920000000     0.653080000000     0.511540000000     0.845611   
Cu14     Cu     0.121170000000     0.595440000000     0.513620000000     0.834229   
Cu15     Cu     0.126780000000     0.652810000000     0.263330000000     0.837309   
Cu16     Cu     0.126250000000     0.595160000000     0.261160000000     0.842671   
Cu17     Cu     0.595710000000     0.121160000000     0.491350000000     0.842066   
Cu18     Cu     0.653450000000     0.118450000000     0.989250000000     0.84284    
Cu19     Cu     0.595840000000     0.118110000000     0.239520000000     0.842069   
Cu20     Cu     0.653540000000     0.114430000000     0.241810000000     0.848083   
Cu21     Cu     0.582800000000     0.868470000000     0.484240000000     0.841121   
Cu22     Cu     0.640560000000     0.865900000000     0.482360000000     0.838079   
Cu23     Cu     0.581690000000     0.870350000000     0.232540000000     0.840938   
Cu24     Cu     0.639460000000     0.868210000000     0.234640000000     0.843305   
Cu25     Cu     0.381700000000     0.381220000000     0.476990000000     0.835941   
Cu26     Cu     0.383420000000     0.384290000000     0.034290000000     0.847587   
Cu27     Cu     0.387950000000     0.390860000000     0.219160000000     0.841879   
Cu28     Cu     0.391630000000     0.383510000000     0.275810000000     0.843777   
Cu29     Cu     0.375050000000     0.633080000000     0.034600000000     0.848689   
Cu30     Cu     0.367130000000     0.635160000000     0.477760000000     0.83684    
Cu31     Cu     0.379300000000     0.635090000000     0.291840000000     0.833231   
Cu32     Cu     0.376480000000     0.635580000000     0.234650000000     0.853847   
Cu33     Cu     0.627470000000     0.366720000000     0.041750000000     0.84427    
Cu34     Cu     0.632550000000     0.366000000000     0.484740000000     0.838427   
Cu35     Cu     0.638330000000     0.369150000000     0.208710000000     0.84126    
Cu36     Cu     0.640080000000     0.363600000000     0.265820000000     0.840524   
Cu37     Cu     0.618780000000     0.610370000000     0.460970000000     0.841592   
Cu38     Cu     0.618460000000     0.618330000000     0.017670000000     0.845439   
Cu39     Cu     0.624420000000     0.617770000000     0.216820000000     0.846369   
Cu40     Cu     0.630270000000     0.620280000000     0.273860000000     0.833067   
Cu41     Cu     0.132800000000     0.364330000000     0.500140000000     0.842402   
Cu42     Cu     0.131140000000     0.421950000000     0.002260000000     0.839086   
Cu43     Cu     0.137390000000     0.418670000000     0.250970000000     0.835675   
Cu44     Cu     0.136550000000     0.361040000000     0.252900000000     0.842381   
Cu45     Cu     0.882500000000     0.355920000000     0.019360000000     0.841937   
Cu46     Cu     0.879600000000     0.413540000000     0.018490000000     0.836832   
Cu47     Cu     0.886870000000     0.357880000000     0.268330000000     0.844174   
Cu48     Cu     0.885230000000     0.415560000000     0.267690000000     0.833972   
Cu49     Cu     0.361670000000     0.882410000000     0.497300000000     0.847964   
Cu50     Cu     0.419550000000     0.882590000000     0.997810000000     0.844284   
Cu51     Cu     0.361860000000     0.883500000000     0.746870000000     0.849213   
Cu52     Cu     0.419730000000     0.884190000000     0.747780000000     0.843113   
Cu53     Cu     0.357920000000     0.131330000000     0.994390000000     0.847505   
Cu54     Cu     0.415780000000     0.132130000000     0.495040000000     0.842974   
Cu55     Cu     0.356900000000     0.135920000000     0.744370000000     0.842494   
Cu56     Cu     0.414760000000     0.137400000000     0.745100000000     0.846404   
Cu57     Cu     0.869230000000     0.654630000000     0.990670000000     0.843107   
Cu58     Cu     0.866900000000     0.596980000000     0.989950000000     0.837455   
Cu59     Cu     0.877210000000     0.652810000000     0.739880000000     0.83794    
Cu60     Cu     0.878410000000     0.595130000000     0.738770000000     0.842165   
Cu61     Cu     0.119920000000     0.653080000000     0.011550000000     0.845945   
Cu62     Cu     0.121170000000     0.595440000000     0.013620000000     0.834532   
Cu63     Cu     0.126780000000     0.652810000000     0.763330000000     0.837301   
Cu64     Cu     0.126250000000     0.595160000000     0.761160000000     0.842671   
Cu65     Cu     0.595710000000     0.121160000000     0.991350000000     0.841783   
Cu66     Cu     0.653450000000     0.118450000000     0.489250000000     0.843117   
Cu67     Cu     0.595840000000     0.118110000000     0.739520000000     0.842073   
Cu68     Cu     0.653540000000     0.114430000000     0.741810000000     0.848072   
Cu69     Cu     0.582800000000     0.868470000000     0.984240000000     0.840832   
Cu70     Cu     0.640560000000     0.865900000000     0.982360000000     0.837804   
Cu71     Cu     0.581690000000     0.870350000000     0.732540000000     0.840941   
Cu72     Cu     0.639460000000     0.868210000000     0.734640000000     0.843259   
Cu73     Cu     0.381700000000     0.381220000000     0.976990000000     0.835769   
Cu74     Cu     0.383420000000     0.384290000000     0.534290000000     0.84718    
Cu75     Cu     0.387950000000     0.390860000000     0.719160000000     0.841884   
Cu76     Cu     0.391630000000     0.383510000000     0.775810000000     0.843776   
Cu77     Cu     0.375050000000     0.633080000000     0.534600000000     0.848375   
Cu78     Cu     0.367130000000     0.635160000000     0.977760000000     0.836565   
Cu79     Cu     0.379300000000     0.635090000000     0.791840000000     0.833089   
Cu80     Cu     0.376480000000     0.635580000000     0.734660000000     0.853772   
Cu81     Cu     0.627470000000     0.366720000000     0.541740000000     0.843749   
Cu82     Cu     0.632550000000     0.366000000000     0.984730000000     0.838375   
Cu83     Cu     0.638330000000     0.369150000000     0.708710000000     0.841392   
Cu84     Cu     0.640080000000     0.363600000000     0.765830000000     0.840562   
Cu85     Cu     0.618780000000     0.610370000000     0.960970000000     0.841149   
Cu86     Cu     0.618460000000     0.618330000000     0.517670000000     0.845207   
Cu87     Cu     0.624420000000     0.617770000000     0.716810000000     0.846435   
Cu88     Cu     0.630270000000     0.620280000000     0.773860000000     0.833209   
Cu89     Cu     0.132800000000     0.364330000000     0.000140000000     0.843002   
Cu90     Cu     0.131140000000     0.421950000000     0.502260000000     0.838803   
Cu91     Cu     0.137390000000     0.418670000000     0.750970000000     0.835674   
Cu92     Cu     0.136550000000     0.361040000000     0.752900000000     0.842363   
Cu93     Cu     0.882500000000     0.355920000000     0.519360000000     0.841615   
Cu94     Cu     0.879600000000     0.413540000000     0.518490000000     0.836498   
Cu95     Cu     0.886870000000     0.357880000000     0.768330000000     0.844165   
Cu96     Cu     0.885230000000     0.415560000000     0.767690000000     0.833972   
H1       H      0.846300000000     0.354750000000     0.386400000000     0.0389996  
H2       H      0.846550000000     0.416980000000     0.387160000000     0.0395225  
H3       H      0.887240000000     0.435610000000     0.422310000000     0.0431876  
H4       H      0.876220000000     0.335560000000     0.364220000000     0.0430625  
H5       H      0.886380000000     0.334830000000     0.421350000000     0.0427535  
H6       H      0.916880000000     0.353760000000     0.399600000000     0.0401995  
H7       H      0.876750000000     0.436370000000     0.365340000000     0.0427679  
H8       H      0.917230000000     0.416580000000     0.400050000000     0.0401076  
H9       H      0.850400000000     0.353580000000     0.141410000000     0.0397002  
H10      H      0.848260000000     0.415770000000     0.140830000000     0.0394674  
H11      H      0.892050000000     0.436820000000     0.170840000000     0.0428642  
H12      H      0.878300000000     0.334900000000     0.116350000000     0.0432106  
H13      H      0.895530000000     0.335950000000     0.171680000000     0.0429972  
H14      H      0.922010000000     0.356210000000     0.146290000000     0.0398923  
H15      H      0.874970000000     0.435770000000     0.115420000000     0.0429432  
H16      H      0.919930000000     0.418010000000     0.145790000000     0.0399573  
H17      H      0.013430000000     0.359750000000     0.232580000000     0.040819   
H18      H      0.014100000000     0.423390000000     0.234080000000     0.0402613  
H19      H      0.982380000000     0.439930000000     0.278010000000     0.0427871  
H20      H      0.039510000000     0.340170000000     0.258880000000     0.0433181  
H21      H      0.984610000000     0.339040000000     0.277370000000     0.0428463  
H22      H      0.010070000000     0.359440000000     0.303690000000     0.0388681  
H23      H      0.039250000000     0.440910000000     0.262620000000     0.0427949  
H24      H      0.007870000000     0.420390000000     0.304920000000     0.0385714  
H25      H      0.101150000000     0.428430000000     0.380120000000     0.0396268  
H26      H      0.096530000000     0.366570000000     0.379080000000     0.0400649  
H27      H      0.139810000000     0.342520000000     0.350060000000     0.0428774  
H28      H      0.131120000000     0.445140000000     0.404290000000     0.042922   
H29      H      0.145120000000     0.443280000000     0.347440000000     0.0432606  
H30      H      0.172340000000     0.423160000000     0.372140000000     0.0397573  
H31      H      0.121650000000     0.344650000000     0.404440000000     0.0432424  
H32      H      0.168050000000     0.361180000000     0.374840000000     0.0395687  
H33      H      0.096380000000     0.416320000000     0.133120000000     0.0400538  
H34      H      0.101800000000     0.354130000000     0.133830000000     0.0394771  
H35      H      0.141940000000     0.339790000000     0.096680000000     0.0430454  
H36      H      0.124090000000     0.438390000000     0.155510000000     0.0432142  
H37      H      0.135730000000     0.440380000000     0.099410000000     0.0428567  
H38      H      0.166910000000     0.422500000000     0.121080000000     0.039487   
H39      H      0.134490000000     0.338100000000     0.154740000000     0.0426968  
H40      H      0.171640000000     0.360060000000     0.118240000000     0.0395765  
H41      H      0.009670000000     0.357530000000     0.482270000000     0.0405509  
H42      H      0.008060000000     0.420880000000     0.480950000000     0.040325   
H43      H      0.976750000000     0.439430000000     0.524540000000     0.0426687  
H44      H      0.035920000000     0.340020000000     0.009850000000     0.043035   
H45      H      0.980380000000     0.338610000000     0.027330000000     0.0430339  
H46      H      0.005270000000     0.360130000000     0.053260000000     0.0388214  
H47      H      0.032940000000     0.440810000000     0.508120000000     0.0431859  
H48      H      0.002770000000     0.421250000000     0.051950000000     0.038869   
H49      H      0.765130000000     0.378350000000     0.199720000000     0.0407297  
H50      H      0.763220000000     0.329290000000     0.237920000000     0.0394885  
H51      H      0.788930000000     0.342370000000     0.286550000000     0.0411995  
H52      H      0.736600000000     0.408820000000     0.206590000000     0.03826    
H53      H      0.791370000000     0.422080000000     0.225700000000     0.0400314  
H54      H      0.761940000000     0.422880000000     0.255770000000     0.0416891  
H55      H      0.734140000000     0.329830000000     0.268100000000     0.0385799  
H56      H      0.760860000000     0.372600000000     0.294240000000     0.0415108  
H57      H      0.603750000000     0.481070000000     0.280540000000     0.0395201  
H58      H      0.599200000000     0.486530000000     0.218040000000     0.0408332  
H59      H      0.638630000000     0.522460000000     0.196460000000     0.0433219  
H60      H      0.638030000000     0.461490000000     0.294790000000     0.0425379  
H61      H      0.639980000000     0.521130000000     0.296550000000     0.0424609  
H62      H      0.672130000000     0.502600000000     0.276950000000     0.0390798  
H63      H      0.628090000000     0.466310000000     0.195340000000     0.0435226  
H64      H      0.669500000000     0.500950000000     0.215010000000     0.039455   
H65      H      0.748160000000     0.385110000000     0.062960000000     0.0420765  
H66      H      0.741220000000     0.428880000000     0.018060000000     0.0384507  
H67      H      0.783050000000     0.418930000000     0.482660000000     0.0407762  
H68      H      0.727800000000     0.348620000000     0.056490000000     0.0405217  
H69      H      0.785370000000     0.343510000000     0.048120000000     0.0399562  
H70      H      0.763400000000     0.335790000000     0.513100000000     0.0421726  
H71      H      0.722460000000     0.416240000000     0.483050000000     0.0404003  
H72      H      0.765540000000     0.383360000000     0.469350000000     0.0391721  
H73      H      0.657420000000     0.499010000000     0.534010000000     0.0394034  
H74      H      0.652610000000     0.489920000000     0.472550000000     0.0399939  
H75      H      0.606420000000     0.457680000000     0.959240000000     0.0432969  
H76      H      0.628780000000     0.524120000000     0.551640000000     0.0429074  
H77      H      0.618100000000     0.466320000000     0.058520000000     0.0425071  
H78      H      0.586790000000     0.487660000000     0.040310000000     0.0392472  
H79      H      0.623390000000     0.512100000000     0.452150000000     0.0433076  
H80      H      0.581400000000     0.484160000000     0.979970000000     0.0400913  
H81      H      0.504000000000     0.656870000000     0.288700000000     0.0400002  
H82      H      0.501150000000     0.657440000000     0.226350000000     0.04014    
H83      H      0.525910000000     0.610360000000     0.204490000000     0.0431136  
H84      H      0.478580000000     0.630050000000     0.308470000000     0.0432934  
H85      H      0.534420000000     0.611430000000     0.304410000000     0.0429202  
H86      H      0.506410000000     0.585310000000     0.287250000000     0.0393673  
H87      H      0.472500000000     0.632460000000     0.208450000000     0.0427436  
H88      H      0.500290000000     0.585720000000     0.226760000000     0.0396814  
H89      H      0.493570000000     0.582560000000     0.021320000000     0.040173   
H90      H      0.493010000000     0.582620000000     0.460810000000     0.0389655  
H91      H      0.463040000000     0.627910000000     0.444770000000     0.0426902  
H92      H      0.523350000000     0.604560000000     0.041080000000     0.0430632  
H93      H      0.472760000000     0.631290000000     0.044640000000     0.0432164  
H94      H      0.499700000000     0.653970000000     0.021900000000     0.0401422  
H95      H      0.519280000000     0.608610000000     0.440890000000     0.0428622  
H96      H      0.491850000000     0.654240000000     0.460290000000     0.0396024  
H97      H      0.253080000000     0.395540000000     0.202460000000     0.0394089  
H98      H      0.256360000000     0.344920000000     0.241730000000     0.0417134  
H99      H      0.292120000000     0.354970000000     0.285500000000     0.0399404  
H100     H      0.233810000000     0.429300000000     0.217920000000     0.041479   
H101     H      0.293960000000     0.429980000000     0.219330000000     0.0410621  
H102     H      0.274440000000     0.437920000000     0.255270000000     0.0388255  
H103     H      0.234500000000     0.348810000000     0.277390000000     0.0406122  
H104     H      0.270490000000     0.389730000000     0.295900000000     0.0416297  
H105     H      0.515040000000     0.334340000000     0.268830000000     0.038937   
H106     H      0.513930000000     0.336880000000     0.208210000000     0.0385397  
H107     H      0.484740000000     0.382890000000     0.191890000000     0.0428826  
H108     H      0.543090000000     0.358090000000     0.289160000000     0.0429789  
H109     H      0.489510000000     0.380080000000     0.292040000000     0.0434759  
H110     H      0.516130000000     0.405930000000     0.272450000000     0.0407362  
H111     H      0.540150000000     0.363410000000     0.189030000000     0.0427174  
H112     H      0.512490000000     0.408470000000     0.210280000000     0.0402265  
H113     H      0.351670000000     0.512270000000     0.228710000000     0.0395461  
H114     H      0.348770000000     0.511450000000     0.290350000000     0.0394167  
H115     H      0.391830000000     0.479150000000     0.308230000000     0.0429884  
H116     H      0.377230000000     0.540330000000     0.210770000000     0.0429968  
H117     H      0.400230000000     0.487940000000     0.208550000000     0.0432448  
H118     H      0.423400000000     0.513230000000     0.232650000000     0.0402668  
H119     H      0.375670000000     0.536100000000     0.311080000000     0.0430178  
H120     H      0.420310000000     0.506100000000     0.293120000000     0.0393055  
H121     H      0.260570000000     0.388210000000     0.048020000000     0.0417491  
H122     H      0.262680000000     0.342400000000     0.004460000000     0.0397173  
H123     H      0.227650000000     0.357540000000     0.463190000000     0.040543   
H124     H      0.285860000000     0.421380000000     0.041070000000     0.038612   
H125     H      0.229140000000     0.432650000000     0.029490000000     0.0401203  
H126     H      0.254160000000     0.437120000000     0.495950000000     0.0417042  
H127     H      0.286440000000     0.350010000000     0.470970000000     0.0396039  
H128     H      0.251510000000     0.390650000000     0.453510000000     0.0399395  
H129     H      0.503240000000     0.328050000000     0.034370000000     0.0386903  
H130     H      0.508190000000     0.326540000000     0.474780000000     0.0388867  
H131     H      0.480050000000     0.371310000000     0.454460000000     0.0430145  
H132     H      0.530930000000     0.350490000000     0.056440000000     0.0426905  
H133     H      0.479760000000     0.376710000000     0.054630000000     0.0436002  
H134     H      0.508810000000     0.399530000000     0.034690000000     0.042173   
H135     H      0.536270000000     0.351790000000     0.456330000000     0.0425699  
H136     H      0.507350000000     0.398120000000     0.471640000000     0.0400752  
H137     H      0.409720000000     0.504310000000     0.467390000000     0.0395207  
H138     H      0.416400000000     0.506690000000     0.528670000000     0.0400234  
H139     H      0.373570000000     0.535650000000     0.053680000000     0.0428985  
H140     H      0.379230000000     0.479590000000     0.452400000000     0.0429022  
H141     H      0.365430000000     0.537080000000     0.453820000000     0.0431176  
H142     H      0.338710000000     0.512370000000     0.974660000000     0.0397169  
H143     H      0.392410000000     0.481250000000     0.051740000000     0.0431841  
H144     H      0.345070000000     0.510170000000     0.036370000000     0.0396707  
H145     H      0.565640000000     0.748500000000     0.249900000000     0.0413563  
H146     H      0.611090000000     0.755860000000     0.292270000000     0.0390339  
H147     H      0.651170000000     0.718480000000     0.280170000000     0.040691   
H148     H      0.570520000000     0.769610000000     0.213880000000     0.0401562  
H149     H      0.581650000000     0.712130000000     0.208600000000     0.0388579  
H150     H      0.615070000000     0.736210000000     0.199250000000     0.0425835  
H151     H      0.644820000000     0.777930000000     0.280640000000     0.0404702  
H152     H      0.660920000000     0.738040000000     0.244710000000     0.0395467  
H153     H      0.643530000000     0.709890000000     0.940710000000     0.0395174  
H154     H      0.607390000000     0.730290000000     0.020410000000     0.0441467  
H155     H      0.568370000000     0.770130000000     0.504830000000     0.040526   
H156     H      0.605090000000     0.724040000000     0.931070000000     0.0415973  
H157     H      0.653130000000     0.755170000000     0.974960000000     0.0440192  
H158     H      0.641340000000     0.768770000000     0.437380000000     0.0378381  
H159     H      0.571360000000     0.711980000000     0.509040000000     0.0380583  
H160     H      0.563150000000     0.751590000000     0.467710000000     0.0417162  
H161     H      0.576350000000     0.915210000000     0.349420000000     0.0385555  
H162     H      0.637170000000     0.917780000000     0.350510000000     0.0388595  
H163     H      0.659650000000     0.879590000000     0.385860000000     0.0429159  
H164     H      0.558050000000     0.883390000000     0.329130000000     0.0425908  
H165     H      0.558970000000     0.877510000000     0.387340000000     0.043087   
H166     H      0.576800000000     0.845750000000     0.366680000000     0.0405944  
H167     H      0.658970000000     0.889040000000     0.329140000000     0.0428466  
H168     H      0.642340000000     0.847760000000     0.364730000000     0.0405035  
H169     H      0.648470000000     0.887420000000     0.118480000000     0.0405358  
H170     H      0.582640000000     0.891180000000     0.115950000000     0.0417364  
H171     H      0.562560000000     0.852570000000     0.079200000000     0.0428263  
H172     H      0.662930000000     0.853170000000     0.137740000000     0.0429446  
H173     H      0.663580000000     0.850410000000     0.079020000000     0.0428285  
H174     H      0.643020000000     0.819100000000     0.097920000000     0.0388216  
H175     H      0.562610000000     0.860240000000     0.135990000000     0.0431451  
H176     H      0.581980000000     0.821480000000     0.099530000000     0.0384348  
H177     H      0.635360000000     0.233710000000     0.280780000000     0.0401958  
H178     H      0.590910000000     0.239060000000     0.234630000000     0.0422202  
H179     H      0.610800000000     0.271800000000     0.191940000000     0.0396563  
H180     H      0.668600000000     0.209940000000     0.271430000000     0.0407415  
H181     H      0.677040000000     0.268970000000     0.266970000000     0.0392112  
H182     H      0.686560000000     0.246570000000     0.233070000000     0.0386067  
H183     H      0.597890000000     0.215050000000     0.200850000000     0.0388951  
H184     H      0.644240000000     0.246350000000     0.186980000000     0.0415516  
H185     H      0.585980000000     0.993640000000     0.268530000000     0.0403268  
H186     H      0.647980000000     0.989550000000     0.267480000000     0.0403882  
H187     H      0.665560000000     0.963080000000     0.219800000000     0.0429555  
H188     H      0.567830000000     0.022370000000     0.244000000000     0.0431167  
H189     H      0.564400000000     0.968320000000     0.222160000000     0.0428351  
H190     H      0.585450000000     0.994770000000     0.197350000000     0.0394362  
H191     H      0.669010000000     0.016200000000     0.242880000000     0.0431571  
H192     H      0.646210000000     0.991940000000     0.196330000000     0.0396746  
H193     H      0.641400000000     0.241070000000     0.053030000000     0.040971   
H194     H      0.685540000000     0.246780000000     0.010070000000     0.0392294  
H195     H      0.668740000000     0.216450000000     0.466050000000     0.0408432  
H196     H      0.608860000000     0.268040000000     0.051070000000     0.0413974  
H197     H      0.594220000000     0.214490000000     0.033060000000     0.0396562  
H198     H      0.590210000000     0.243330000000     0.502690000000     0.0424172  
H199     H      0.678640000000     0.274060000000     0.479160000000     0.040553   
H200     H      0.636780000000     0.242510000000     0.458470000000     0.0403134  
H201     H      0.649810000000     0.086610000000     0.360810000000     0.0410092  
H202     H      0.586310000000     0.092630000000     0.358300000000     0.0400152  
H203     H      0.572190000000     0.133280000000     0.394700000000     0.0428445  
H204     H      0.672170000000     0.113950000000     0.338180000000     0.0431541  
H205     H      0.673190000000     0.127310000000     0.393640000000     0.0429138  
H206     H      0.654790000000     0.157360000000     0.370910000000     0.0386683  
H207     H      0.571750000000     0.125360000000     0.336570000000     0.0428834  
H208     H      0.593470000000     0.162290000000     0.373130000000     0.0389114  
H209     H      0.595280000000     0.146000000000     0.108920000000     0.0398527  
H210     H      0.659440000000     0.146720000000     0.106920000000     0.0398007  
H211     H      0.677780000000     0.109220000000     0.144740000000     0.0427703  
H212     H      0.576450000000     0.115100000000     0.087700000000     0.0430706  
H213     H      0.576750000000     0.105050000000     0.144010000000     0.043044   
H214     H      0.597890000000     0.075770000000     0.122700000000     0.0394404  
H215     H      0.677400000000     0.114850000000     0.086470000000     0.0429189  
H216     H      0.659610000000     0.077320000000     0.124430000000     0.0389063  
H217     H      0.650390000000     0.998890000000     0.454610000000     0.0400881  
H218     H      0.587320000000     0.002150000000     0.953810000000     0.0401338  
H219     H      0.566040000000     0.967080000000     0.993020000000     0.0429829  
H220     H      0.670010000000     0.019480000000     0.485290000000     0.0430067  
H221     H      0.666940000000     0.961920000000     0.494340000000     0.0430219  
H222     H      0.648390000000     0.984460000000     0.524310000000     0.0398928  
H223     H      0.569150000000     0.024670000000     0.984020000000     0.0429165  
H224     H      0.586010000000     0.987640000000     0.023510000000     0.0402221  
H225     H      0.248690000000     0.582090000000     0.275520000000     0.0417214  
H226     H      0.240670000000     0.627450000000     0.318420000000     0.0382415  
H227     H      0.280310000000     0.664480000000     0.306110000000     0.04088    
H228     H      0.225890000000     0.586130000000     0.240330000000     0.0400328  
H229     H      0.282000000000     0.598390000000     0.231480000000     0.040034   
H230     H      0.257380000000     0.632040000000     0.224760000000     0.0429184  
H231     H      0.219450000000     0.661320000000     0.306040000000     0.0405012  
H232     H      0.260330000000     0.677220000000     0.271870000000     0.0387852  
H233     H      0.252140000000     0.680600000000     0.015780000000     0.0389292  
H234     H      0.254110000000     0.638800000000     0.062230000000     0.0412246  
H235     H      0.220250000000     0.593840000000     0.050620000000     0.0382952  
H236     H      0.272740000000     0.670710000000     0.480810000000     0.039713   
H237     H      0.213700000000     0.662980000000     0.478700000000     0.0406788  
H238     H      0.236420000000     0.629000000000     0.469440000000     0.0405068  
H239     H      0.278230000000     0.604680000000     0.055810000000     0.0393895  
H240     H      0.242120000000     0.585480000000     0.515690000000     0.0421589  
H241     H      0.157440000000     0.591200000000     0.394650000000     0.0396902  
H242     H      0.154300000000     0.654010000000     0.392660000000     0.0391833  
H243     H      0.111360000000     0.671520000000     0.359070000000     0.0430715  
H244     H      0.127310000000     0.571560000000     0.416250000000     0.0429191  
H245     H      0.119170000000     0.570960000000     0.358240000000     0.0430178  
H246     H      0.087290000000     0.587740000000     0.379750000000     0.0394692  
H247     H      0.123890000000     0.672320000000     0.414990000000     0.0428875  
H248     H      0.083490000000     0.649610000000     0.381480000000     0.0399903  
H249     H      0.089860000000     0.597180000000     0.135690000000     0.0405463  
H250     H      0.091640000000     0.659810000000     0.133630000000     0.039591   
H251     H      0.134930000000     0.676860000000     0.166040000000     0.0427697  
H252     H      0.116100000000     0.576400000000     0.110470000000     0.0431882  
H253     H      0.134700000000     0.575990000000     0.164750000000     0.042872   
H254     H      0.161610000000     0.595870000000     0.139530000000     0.0392096  
H255     H      0.120840000000     0.677130000000     0.109070000000     0.0429621  
H256     H      0.163000000000     0.657640000000     0.141540000000     0.0394528  
H257     H      0.743740000000     0.674070000000     0.238380000000     0.0386853  
H258     H      0.747630000000     0.628640000000     0.195200000000     0.0415586  
H259     H      0.780840000000     0.584890000000     0.212710000000     0.0401336  
H260     H      0.721790000000     0.665070000000     0.272730000000     0.0390987  
H261     H      0.781760000000     0.661280000000     0.277390000000     0.0408539  
H262     H      0.760090000000     0.627510000000     0.289430000000     0.0402294  
H263     H      0.723910000000     0.594300000000     0.202080000000     0.038965   
H264     H      0.756880000000     0.579780000000     0.246910000000     0.042296   
H265     H      0.002960000000     0.657320000000     0.275610000000     0.0402829  
H266     H      0.001950000000     0.593570000000     0.274920000000     0.0410004  
H267     H      0.975350000000     0.575130000000     0.227790000000     0.0429165  
H268     H      0.030070000000     0.675710000000     0.249490000000     0.0431024  
H269     H      0.974690000000     0.676060000000     0.230080000000     0.0425716  
H270     H      0.001560000000     0.656530000000     0.204460000000     0.0384809  
H271     H      0.029300000000     0.574810000000     0.249250000000     0.0432122  
H272     H      0.002530000000     0.596190000000     0.203780000000     0.0386641  
H273     H      0.738640000000     0.577440000000     0.990340000000     0.0401397  
H274     H      0.739810000000     0.628140000000     0.029130000000     0.042072   
H275     H      0.770720000000     0.670790000000     0.006080000000     0.0415445  
H276     H      0.715410000000     0.581540000000     0.455920000000     0.0412331  
H277     H      0.774250000000     0.588760000000     0.448320000000     0.0408142  
H278     H      0.750290000000     0.620570000000     0.435130000000     0.0391191  
H279     H      0.714290000000     0.659980000000     0.018160000000     0.0396289  
H280     H      0.746300000000     0.670630000000     0.471810000000     0.0406164  
H281     H      0.851790000000     0.658570000000     0.372260000000     0.0405457  
H282     H      0.848940000000     0.593230000000     0.373050000000     0.0402537  
H283     H      0.887220000000     0.573470000000     0.336390000000     0.0425609  
H284     H      0.884380000000     0.674860000000     0.393080000000     0.0425498  
H285     H      0.892140000000     0.674090000000     0.335550000000     0.0430937  
H286     H      0.921650000000     0.653070000000     0.356640000000     0.0390208  
H287     H      0.880060000000     0.574620000000     0.394050000000     0.0433039  
H288     H      0.918880000000     0.591870000000     0.356940000000     0.0391255  
H289     H      0.895720000000     0.593070000000     0.118440000000     0.0410151  
H290     H      0.895940000000     0.657720000000     0.119550000000     0.0407064  
H291     H      0.853410000000     0.676110000000     0.086610000000     0.0428763  
H292     H      0.866310000000     0.574780000000     0.142120000000     0.0429494  
H293     H      0.852370000000     0.575270000000     0.085940000000     0.0428261  
H294     H      0.824410000000     0.595500000000     0.109820000000     0.038803   
H295     H      0.866310000000     0.675400000000     0.143330000000     0.0431582  
H296     H      0.824830000000     0.656170000000     0.109910000000     0.0386083  
H297     H      0.005640000000     0.590230000000     0.972550000000     0.0401781  
H298     H      0.004100000000     0.654010000000     0.472820000000     0.0405629  
H299     H      0.964850000000     0.672980000000     0.509600000000     0.0431333  
H300     H      0.022970000000     0.572190000000     0.006030000000     0.0432498  
H301     H      0.963860000000     0.572240000000     0.005980000000     0.042649   
H302     H      0.981290000000     0.590210000000     0.039480000000     0.0392085  
H303     H      0.022500000000     0.672870000000     0.505320000000     0.0431733  
H304     H      0.983210000000     0.652150000000     0.540880000000     0.039735   
H305     H      0.433740000000     0.270650000000     0.232420000000     0.0393743  
H306     H      0.385660000000     0.270670000000     0.192600000000     0.0410897  
H307     H      0.345480000000     0.233810000000     0.210170000000     0.0395034  
H308     H      0.428460000000     0.291170000000     0.268380000000     0.0405333  
H309     H      0.423980000000     0.232460000000     0.272600000000     0.0415183  
H310     H      0.390150000000     0.253370000000     0.285910000000     0.0402981  
H311     H      0.351370000000     0.292520000000     0.204260000000     0.0391336  
H312     H      0.340220000000     0.255140000000     0.245930000000     0.0414428  
H313     H      0.332850000000     0.265910000000     0.506580000000     0.0384749  
H314     H      0.376650000000     0.262050000000     0.051500000000     0.041655   
H315     H      0.420270000000     0.227890000000     0.035750000000     0.0389801  
H316     H      0.343140000000     0.287890000000     0.472640000000     0.0392199  
H317     H      0.346980000000     0.228370000000     0.467660000000     0.0408713  
H318     H      0.381460000000     0.249790000000     0.457240000000     0.0400487  
H319     H      0.411550000000     0.285260000000     0.045640000000     0.038858   
H320     H      0.427720000000     0.251770000000     0.001990000000     0.042357   
H321     H      0.356370000000     0.104430000000     0.376340000000     0.0404448  
H322     H      0.420360000000     0.107990000000     0.376320000000     0.0405731  
H323     H      0.436220000000     0.149070000000     0.340590000000     0.0429946  
H324     H      0.336190000000     0.133980000000     0.398190000000     0.0431473  
H325     H      0.335210000000     0.143760000000     0.341300000000     0.0426075  
H326     H      0.353590000000     0.174740000000     0.362880000000     0.0388032  
H327     H      0.437030000000     0.139920000000     0.397820000000     0.0429267  
H328     H      0.415010000000     0.177990000000     0.362280000000     0.0384391  
H329     H      0.418200000000     0.162770000000     0.125820000000     0.0401567  
H330     H      0.354330000000     0.162640000000     0.125740000000     0.040044   
H331     H      0.335900000000     0.121930000000     0.090780000000     0.0428582  
H332     H      0.436780000000     0.132470000000     0.148100000000     0.0427375  
H333     H      0.437060000000     0.121800000000     0.091260000000     0.0429438  
H334     H      0.417130000000     0.092220000000     0.113350000000     0.0393085  
H335     H      0.335750000000     0.132220000000     0.147760000000     0.0432668  
H336     H      0.355530000000     0.092210000000     0.112910000000     0.039179   
H337     H      0.431840000000     0.761110000000     0.253350000000     0.0415836  
H338     H      0.386370000000     0.762700000000     0.209830000000     0.0399901  
H339     H      0.343150000000     0.730960000000     0.227920000000     0.0410001  
H340     H      0.427080000000     0.787650000000     0.285660000000     0.0394582  
H341     H      0.413920000000     0.731780000000     0.299040000000     0.0405588  
H342     H      0.381350000000     0.758250000000     0.304320000000     0.0412023  
H343     H      0.353890000000     0.788310000000     0.217090000000     0.040445   
H344     H      0.336530000000     0.756550000000     0.260270000000     0.0397227  
H345     H      0.358330000000     0.016480000000     0.281300000000     0.0400105  
H346     H      0.421140000000     0.018110000000     0.279860000000     0.0399945  
H347     H      0.439860000000     0.982320000000     0.240170000000     0.0428956  
H348     H      0.337940000000     0.037930000000     0.251690000000     0.0429722  
H349     H      0.338840000000     0.980620000000     0.241830000000     0.0430756  
H350     H      0.357140000000     0.002810000000     0.211440000000     0.0398751  
H351     H      0.438930000000     0.040090000000     0.249030000000     0.0429851  
H352     H      0.419860000000     0.003570000000     0.210170000000     0.0397308  
H353     H      0.381800000000     0.757640000000     0.046860000000     0.0414214  
H354     H      0.334300000000     0.757820000000     0.005410000000     0.0402479  
H355     H      0.350720000000     0.788050000000     0.460710000000     0.0406619  
H356     H      0.412500000000     0.729390000000     0.039970000000     0.0392434  
H357     H      0.427780000000     0.784380000000     0.024960000000     0.0400643  
H358     H      0.429030000000     0.757310000000     0.492800000000     0.0413285  
H359     H      0.337680000000     0.731440000000     0.473210000000     0.0398774  
H360     H      0.381390000000     0.760690000000     0.452130000000     0.0405016  
H361     H      0.422000000000     0.924970000000     0.381380000000     0.0391968  
H362     H      0.360380000000     0.925830000000     0.381250000000     0.039198   
H363     H      0.340070000000     0.888260000000     0.344160000000     0.0425881  
H364     H      0.441280000000     0.893650000000     0.401570000000     0.042777   
H365     H      0.441020000000     0.887020000000     0.344090000000     0.0433488  
H366     H      0.422290000000     0.855460000000     0.364320000000     0.0400227  
H367     H      0.340150000000     0.895210000000     0.401580000000     0.0429395  
H368     H      0.358040000000     0.856230000000     0.364490000000     0.0400922  
H369     H      0.361370000000     0.839490000000     0.131820000000     0.0382898  
H370     H      0.422700000000     0.841340000000     0.131510000000     0.038762   
H371     H      0.441210000000     0.879440000000     0.094080000000     0.0431501  
H372     H      0.340600000000     0.869930000000     0.151820000000     0.0429094  
H373     H      0.340300000000     0.875990000000     0.094260000000     0.0428948  
H374     H      0.357430000000     0.908720000000     0.114140000000     0.0406014  
H375     H      0.441720000000     0.873030000000     0.151460000000     0.0426379  
H376     H      0.421930000000     0.910810000000     0.114170000000     0.0407046  
H377     H      0.418520000000     0.009680000000     0.459580000000     0.0397793  
H378     H      0.356750000000     0.008430000000     0.462300000000     0.0398071  
H379     H      0.339380000000     0.978770000000     0.507860000000     0.0429918  
H380     H      0.438910000000     0.035630000000     0.985390000000     0.0430128  
H381     H      0.440580000000     0.980110000000     0.002980000000     0.0430194  
H382     H      0.421790000000     0.005460000000     0.030560000000     0.0397519  
H383     H      0.337690000000     0.033870000000     0.489600000000     0.0429509  
H384     H      0.360110000000     0.004820000000     0.033320000000     0.0397356  
H385     H      0.846300000000     0.354750000000     0.886400000000     0.0389771  
H386     H      0.846550000000     0.416980000000     0.887160000000     0.039505   
H387     H      0.887240000000     0.435610000000     0.922310000000     0.0431455  
H388     H      0.876220000000     0.335560000000     0.864220000000     0.0430469  
H389     H      0.886380000000     0.334830000000     0.921350000000     0.0427053  
H390     H      0.916880000000     0.353760000000     0.899600000000     0.0401692  
H391     H      0.876750000000     0.436370000000     0.865340000000     0.0427585  
H392     H      0.917230000000     0.416580000000     0.900050000000     0.0400794  
H393     H      0.850400000000     0.353580000000     0.641410000000     0.0396933  
H394     H      0.848260000000     0.415770000000     0.640830000000     0.0394644  
H395     H      0.892050000000     0.436820000000     0.670840000000     0.0428635  
H396     H      0.878300000000     0.334900000000     0.616340000000     0.043197   
H397     H      0.895530000000     0.335950000000     0.671680000000     0.042991   
H398     H      0.922010000000     0.356210000000     0.646290000000     0.039887   
H399     H      0.874970000000     0.435770000000     0.615420000000     0.0429329  
H400     H      0.919930000000     0.418010000000     0.645790000000     0.0399559  
H401     H      0.013430000000     0.359750000000     0.732580000000     0.0408211  
H402     H      0.014100000000     0.423390000000     0.734080000000     0.0402654  
H403     H      0.982380000000     0.439930000000     0.778020000000     0.0427821  
H404     H      0.039510000000     0.340170000000     0.758880000000     0.0433129  
H405     H      0.984610000000     0.339040000000     0.777370000000     0.0428267  
H406     H      0.010070000000     0.359440000000     0.803700000000     0.0388367  
H407     H      0.039250000000     0.440910000000     0.762610000000     0.042796   
H408     H      0.007870000000     0.420390000000     0.804920000000     0.0385584  
H409     H      0.101150000000     0.428430000000     0.880120000000     0.0396051  
H410     H      0.096530000000     0.366570000000     0.879080000000     0.0400483  
H411     H      0.139810000000     0.342520000000     0.850060000000     0.0428532  
H412     H      0.131120000000     0.445140000000     0.904290000000     0.0428889  
H413     H      0.145120000000     0.443280000000     0.847440000000     0.0432502  
H414     H      0.172340000000     0.423160000000     0.872140000000     0.0397455  
H415     H      0.121650000000     0.344650000000     0.904430000000     0.0432107  
H416     H      0.168050000000     0.361180000000     0.874840000000     0.0395458  
H417     H      0.096380000000     0.416320000000     0.633120000000     0.0400551  
H418     H      0.101800000000     0.354130000000     0.633830000000     0.0394696  
H419     H      0.141940000000     0.339790000000     0.596680000000     0.0430289  
H420     H      0.124090000000     0.438390000000     0.655510000000     0.043214   
H421     H      0.135730000000     0.440380000000     0.599410000000     0.0428549  
H422     H      0.166910000000     0.422500000000     0.621090000000     0.0394775  
H423     H      0.134490000000     0.338100000000     0.654740000000     0.0426842  
H424     H      0.171640000000     0.360060000000     0.618240000000     0.0395646  
H425     H      0.009670000000     0.357530000000     0.982270000000     0.040205   
H426     H      0.008060000000     0.420880000000     0.980960000000     0.0399946  
H427     H      0.976750000000     0.439430000000     0.024530000000     0.0427564  
H428     H      0.035920000000     0.340020000000     0.509850000000     0.0430615  
H429     H      0.980380000000     0.338610000000     0.527330000000     0.0429394  
H430     H      0.005270000000     0.360130000000     0.553260000000     0.0387953  
H431     H      0.032940000000     0.440810000000     0.008120000000     0.0431612  
H432     H      0.002770000000     0.421250000000     0.551950000000     0.0388487  
H433     H      0.765130000000     0.378350000000     0.699720000000     0.0407386  
H434     H      0.763220000000     0.329290000000     0.737930000000     0.0394926  
H435     H      0.788930000000     0.342370000000     0.786560000000     0.0411813  
H436     H      0.736600000000     0.408820000000     0.706590000000     0.0382632  
H437     H      0.791370000000     0.422080000000     0.725700000000     0.0400237  
H438     H      0.761940000000     0.422880000000     0.755780000000     0.0416639  
H439     H      0.734140000000     0.329830000000     0.768100000000     0.038574   
H440     H      0.760860000000     0.372600000000     0.794240000000     0.0414963  
H441     H      0.603750000000     0.481070000000     0.780540000000     0.0395125  
H442     H      0.599200000000     0.486530000000     0.718040000000     0.0408348  
H443     H      0.638630000000     0.522460000000     0.696470000000     0.0433247  
H444     H      0.638030000000     0.461490000000     0.794790000000     0.0425262  
H445     H      0.639980000000     0.521130000000     0.796550000000     0.0424704  
H446     H      0.672130000000     0.502600000000     0.776950000000     0.0390919  
H447     H      0.628090000000     0.466310000000     0.695340000000     0.0435239  
H448     H      0.669500000000     0.500950000000     0.715010000000     0.0394478  
H449     H      0.748160000000     0.385110000000     0.562960000000     0.0420865  
H450     H      0.741220000000     0.428880000000     0.518060000000     0.0385306  
H451     H      0.783050000000     0.418930000000     0.982650000000     0.0408062  
H452     H      0.727800000000     0.348620000000     0.556490000000     0.0405207  
H453     H      0.785370000000     0.343510000000     0.548120000000     0.0399298  
H454     H      0.763400000000     0.335790000000     0.013100000000     0.0422822  
H455     H      0.722460000000     0.416240000000     0.983060000000     0.0400338  
H456     H      0.765540000000     0.383360000000     0.969350000000     0.0392321  
H457     H      0.657420000000     0.499010000000     0.034010000000     0.0394832  
H458     H      0.652610000000     0.489920000000     0.972550000000     0.0399637  
H459     H      0.606420000000     0.457680000000     0.459240000000     0.0432939  
H460     H      0.628780000000     0.524120000000     0.051640000000     0.0429365  
H461     H      0.618100000000     0.466320000000     0.558520000000     0.0425188  
H462     H      0.586790000000     0.487660000000     0.540310000000     0.039199   
H463     H      0.623390000000     0.512100000000     0.952150000000     0.0433464  
H464     H      0.581400000000     0.484160000000     0.479970000000     0.0401481  
H465     H      0.504000000000     0.656870000000     0.788700000000     0.0399933  
H466     H      0.501150000000     0.657440000000     0.726350000000     0.0401438  
H467     H      0.525910000000     0.610360000000     0.704490000000     0.0431086  
H468     H      0.478580000000     0.630050000000     0.808480000000     0.0432762  
H469     H      0.534420000000     0.611430000000     0.804410000000     0.0429216  
H470     H      0.506410000000     0.585310000000     0.787250000000     0.0393709  
H471     H      0.472500000000     0.632460000000     0.708450000000     0.0427576  
H472     H      0.500290000000     0.585720000000     0.726760000000     0.0396828  
H473     H      0.493570000000     0.582560000000     0.521320000000     0.0401065  
H474     H      0.493010000000     0.582620000000     0.960810000000     0.0389208  
H475     H      0.463040000000     0.627910000000     0.944770000000     0.0427006  
H476     H      0.523350000000     0.604560000000     0.541080000000     0.0430727  
H477     H      0.472760000000     0.631290000000     0.544640000000     0.0432301  
H478     H      0.499700000000     0.653970000000     0.521900000000     0.0400763  
H479     H      0.519280000000     0.608610000000     0.940890000000     0.0428719  
H480     H      0.491850000000     0.654240000000     0.960290000000     0.0395633  
H481     H      0.253080000000     0.395540000000     0.702460000000     0.039405   
H482     H      0.256360000000     0.344920000000     0.741730000000     0.0417054  
H483     H      0.292120000000     0.354970000000     0.785490000000     0.0399476  
H484     H      0.233810000000     0.429300000000     0.717920000000     0.0414785  
H485     H      0.293960000000     0.429980000000     0.719330000000     0.0410626  
H486     H      0.274440000000     0.437920000000     0.755270000000     0.0388261  
H487     H      0.234500000000     0.348810000000     0.777390000000     0.040614   
H488     H      0.270490000000     0.389730000000     0.795900000000     0.0416344  
H489     H      0.515040000000     0.334340000000     0.768830000000     0.0389347  
H490     H      0.513930000000     0.336880000000     0.708210000000     0.0385401  
H491     H      0.484740000000     0.382890000000     0.691890000000     0.0428836  
H492     H      0.543090000000     0.358090000000     0.789160000000     0.0429712  
H493     H      0.489510000000     0.380080000000     0.792040000000     0.0434731  
H494     H      0.516130000000     0.405930000000     0.772450000000     0.0407348  
H495     H      0.540150000000     0.363410000000     0.689030000000     0.0427191  
H496     H      0.512490000000     0.408470000000     0.710280000000     0.0402274  
H497     H      0.351670000000     0.512270000000     0.728710000000     0.0395488  
H498     H      0.348770000000     0.511450000000     0.790350000000     0.0394161  
H499     H      0.391830000000     0.479150000000     0.808230000000     0.0429858  
H500     H      0.377230000000     0.540330000000     0.710770000000     0.0430037  
H501     H      0.400230000000     0.487940000000     0.708550000000     0.0432433  
H502     H      0.423400000000     0.513230000000     0.732640000000     0.0402615  
H503     H      0.375670000000     0.536100000000     0.811080000000     0.0430168  
H504     H      0.420310000000     0.506100000000     0.793120000000     0.0393064  
H505     H      0.260570000000     0.388210000000     0.548020000000     0.0416888  
H506     H      0.262680000000     0.342400000000     0.504460000000     0.0393409  
H507     H      0.227650000000     0.357540000000     0.963190000000     0.0404583  
H508     H      0.285860000000     0.421380000000     0.541070000000     0.0385454  
H509     H      0.229140000000     0.432650000000     0.529490000000     0.0402018  
H510     H      0.254160000000     0.437120000000     0.995950000000     0.0413357  
H511     H      0.286440000000     0.350010000000     0.970970000000     0.0396699  
H512     H      0.251510000000     0.390650000000     0.953510000000     0.0398721  
H513     H      0.503240000000     0.328050000000     0.534370000000     0.0386385  
H514     H      0.508190000000     0.326540000000     0.974780000000     0.0388347  
H515     H      0.480050000000     0.371310000000     0.954460000000     0.0430187  
H516     H      0.530930000000     0.350490000000     0.556440000000     0.0427002  
H517     H      0.479760000000     0.376710000000     0.554630000000     0.0436052  
H518     H      0.508810000000     0.399530000000     0.534690000000     0.0421247  
H519     H      0.536270000000     0.351790000000     0.956340000000     0.0425927  
H520     H      0.507350000000     0.398120000000     0.971640000000     0.0400241  
H521     H      0.409720000000     0.504310000000     0.967380000000     0.0394663  
H522     H      0.416400000000     0.506690000000     0.028670000000     0.0400873  
H523     H      0.373570000000     0.535650000000     0.553680000000     0.0429036  
H524     H      0.379230000000     0.479590000000     0.952400000000     0.042907   
H525     H      0.365430000000     0.537080000000     0.953820000000     0.0431287  
H526     H      0.338710000000     0.512370000000     0.474660000000     0.0397729  
H527     H      0.392410000000     0.481250000000     0.551740000000     0.0431869  
H528     H      0.345070000000     0.510170000000     0.536370000000     0.0396254  
H529     H      0.565640000000     0.748500000000     0.749900000000     0.0413604  
H530     H      0.611090000000     0.755860000000     0.792270000000     0.0390356  
H531     H      0.651170000000     0.718480000000     0.780170000000     0.0406876  
H532     H      0.570520000000     0.769610000000     0.713880000000     0.0401545  
H533     H      0.581650000000     0.712130000000     0.708590000000     0.0388415  
H534     H      0.615070000000     0.736210000000     0.699250000000     0.0425667  
H535     H      0.644820000000     0.777930000000     0.780640000000     0.0404757  
H536     H      0.660920000000     0.738040000000     0.744710000000     0.0395391  
H537     H      0.643530000000     0.709890000000     0.440710000000     0.039558   
H538     H      0.607390000000     0.730290000000     0.520410000000     0.0442224  
H539     H      0.568370000000     0.770130000000     0.004830000000     0.0409628  
H540     H      0.605090000000     0.724040000000     0.431070000000     0.0416344  
H541     H      0.653130000000     0.755170000000     0.474960000000     0.0440697  
H542     H      0.641340000000     0.768770000000     0.937380000000     0.0378467  
H543     H      0.571360000000     0.711980000000     0.009040000000     0.0379906  
H544     H      0.563150000000     0.751590000000     0.967710000000     0.0418358  
H545     H      0.576350000000     0.915210000000     0.849420000000     0.0385497  
H546     H      0.637170000000     0.917780000000     0.850510000000     0.0388543  
H547     H      0.659650000000     0.879590000000     0.885860000000     0.0429074  
H548     H      0.558050000000     0.883390000000     0.829130000000     0.0425814  
H549     H      0.558970000000     0.877510000000     0.887340000000     0.0430858  
H550     H      0.576800000000     0.845750000000     0.866680000000     0.0405993  
H551     H      0.658970000000     0.889040000000     0.829140000000     0.0428345  
H552     H      0.642340000000     0.847760000000     0.864730000000     0.0405005  
H553     H      0.648470000000     0.887420000000     0.618480000000     0.040508   
H554     H      0.582640000000     0.891180000000     0.615950000000     0.0417136  
H555     H      0.562560000000     0.852570000000     0.579200000000     0.0427874  
H556     H      0.662930000000     0.853170000000     0.637740000000     0.0429253  
H557     H      0.663580000000     0.850410000000     0.579020000000     0.0427766  
H558     H      0.643020000000     0.819100000000     0.597920000000     0.0387911  
H559     H      0.562610000000     0.860240000000     0.635990000000     0.0431358  
H560     H      0.581980000000     0.821480000000     0.599530000000     0.038414   
H561     H      0.635360000000     0.233710000000     0.780780000000     0.0401922  
H562     H      0.590910000000     0.239060000000     0.734630000000     0.0422195  
H563     H      0.610800000000     0.271800000000     0.691940000000     0.0396558  
H564     H      0.668600000000     0.209940000000     0.771430000000     0.040738   
H565     H      0.677040000000     0.268970000000     0.766970000000     0.0392006  
H566     H      0.686560000000     0.246570000000     0.733060000000     0.0385976  
H567     H      0.597890000000     0.215050000000     0.700850000000     0.0388934  
H568     H      0.644240000000     0.246350000000     0.686980000000     0.0415463  
H569     H      0.585980000000     0.993640000000     0.768530000000     0.04033    
H570     H      0.647980000000     0.989550000000     0.767480000000     0.0403883  
H571     H      0.665560000000     0.963080000000     0.719800000000     0.0429453  
H572     H      0.567830000000     0.022370000000     0.744000000000     0.0431152  
H573     H      0.564400000000     0.968320000000     0.722160000000     0.0428333  
H574     H      0.585450000000     0.994770000000     0.697350000000     0.0394255  
H575     H      0.669010000000     0.016200000000     0.742880000000     0.0431487  
H576     H      0.646210000000     0.991940000000     0.696330000000     0.039659   
H577     H      0.641400000000     0.241070000000     0.553030000000     0.0409195  
H578     H      0.685540000000     0.246780000000     0.510070000000     0.0388405  
H579     H      0.668740000000     0.216450000000     0.966050000000     0.0407659  
H580     H      0.608860000000     0.268040000000     0.551070000000     0.0413816  
H581     H      0.594220000000     0.214490000000     0.533060000000     0.0396322  
H582     H      0.590210000000     0.243330000000     0.002690000000     0.0424948  
H583     H      0.678640000000     0.274060000000     0.979170000000     0.0406287  
H584     H      0.636780000000     0.242510000000     0.958470000000     0.040235   
H585     H      0.649810000000     0.086610000000     0.860810000000     0.041005   
H586     H      0.586310000000     0.092630000000     0.858300000000     0.040017   
H587     H      0.572190000000     0.133280000000     0.894700000000     0.0428328  
H588     H      0.672170000000     0.113950000000     0.838180000000     0.0431471  
H589     H      0.673190000000     0.127310000000     0.893640000000     0.0429009  
H590     H      0.654790000000     0.157360000000     0.870910000000     0.0386602  
H591     H      0.571750000000     0.125360000000     0.836580000000     0.0428813  
H592     H      0.593470000000     0.162290000000     0.873130000000     0.0389026  
H593     H      0.595280000000     0.146000000000     0.608920000000     0.0398364  
H594     H      0.659440000000     0.146720000000     0.606920000000     0.0397776  
H595     H      0.677780000000     0.109220000000     0.644730000000     0.0427523  
H596     H      0.576450000000     0.115100000000     0.587700000000     0.0430326  
H597     H      0.576750000000     0.105050000000     0.644010000000     0.0430352  
H598     H      0.597890000000     0.075770000000     0.622700000000     0.0394179  
H599     H      0.677400000000     0.114850000000     0.586470000000     0.0428704  
H600     H      0.659610000000     0.077320000000     0.624430000000     0.0388825  
H601     H      0.650390000000     0.998890000000     0.954610000000     0.0400601  
H602     H      0.587320000000     0.002150000000     0.453810000000     0.0401591  
H603     H      0.566040000000     0.967080000000     0.493020000000     0.0429461  
H604     H      0.670010000000     0.019480000000     0.985290000000     0.0429294  
H605     H      0.666940000000     0.961920000000     0.994340000000     0.0430509  
H606     H      0.648390000000     0.984460000000     0.024310000000     0.0402304  
H607     H      0.569150000000     0.024670000000     0.484020000000     0.0429966  
H608     H      0.586010000000     0.987640000000     0.523510000000     0.0398727  
H609     H      0.248690000000     0.582090000000     0.775520000000     0.0417219  
H610     H      0.240670000000     0.627450000000     0.818430000000     0.0382163  
H611     H      0.280310000000     0.664480000000     0.806110000000     0.0408805  
H612     H      0.225890000000     0.586130000000     0.740330000000     0.0400253  
H613     H      0.282000000000     0.598390000000     0.731480000000     0.0400385  
H614     H      0.257380000000     0.632040000000     0.724760000000     0.0429183  
H615     H      0.219450000000     0.661320000000     0.806040000000     0.0404853  
H616     H      0.260330000000     0.677220000000     0.771870000000     0.0387849  
H617     H      0.252140000000     0.680600000000     0.515780000000     0.0390247  
H618     H      0.254110000000     0.638800000000     0.562230000000     0.0412362  
H619     H      0.220250000000     0.593840000000     0.550620000000     0.0382761  
H620     H      0.272740000000     0.670710000000     0.980810000000     0.0393263  
H621     H      0.213700000000     0.662980000000     0.978700000000     0.0407337  
H622     H      0.236420000000     0.629000000000     0.969440000000     0.0405786  
H623     H      0.278230000000     0.604680000000     0.555810000000     0.0393948  
H624     H      0.242120000000     0.585480000000     0.015690000000     0.0422613  
H625     H      0.157440000000     0.591200000000     0.894650000000     0.0396709  
H626     H      0.154300000000     0.654010000000     0.892660000000     0.0391667  
H627     H      0.111360000000     0.671520000000     0.859070000000     0.0430578  
H628     H      0.127310000000     0.571560000000     0.916250000000     0.0428794  
H629     H      0.119170000000     0.570960000000     0.858240000000     0.0430095  
H630     H      0.087290000000     0.587740000000     0.879750000000     0.0394474  
H631     H      0.123890000000     0.672320000000     0.914990000000     0.042851   
H632     H      0.083490000000     0.649610000000     0.881480000000     0.0399669  
H633     H      0.089860000000     0.597180000000     0.635690000000     0.0405438  
H634     H      0.091640000000     0.659810000000     0.633630000000     0.0395813  
H635     H      0.134930000000     0.676860000000     0.666040000000     0.0427598  
H636     H      0.116100000000     0.576400000000     0.610470000000     0.0431839  
H637     H      0.134700000000     0.575990000000     0.664750000000     0.0428708  
H638     H      0.161610000000     0.595870000000     0.639530000000     0.0392077  
H639     H      0.120840000000     0.677130000000     0.609070000000     0.0429425  
H640     H      0.163000000000     0.657640000000     0.641540000000     0.0394455  
H641     H      0.743740000000     0.674070000000     0.738370000000     0.038664   
H642     H      0.747630000000     0.628640000000     0.695200000000     0.0415403  
H643     H      0.780840000000     0.584890000000     0.712710000000     0.0401485  
H644     H      0.721790000000     0.665070000000     0.772740000000     0.0390729  
H645     H      0.781760000000     0.661280000000     0.777390000000     0.0408563  
H646     H      0.760090000000     0.627510000000     0.789430000000     0.0402312  
H647     H      0.723910000000     0.594300000000     0.702080000000     0.0389471  
H648     H      0.756880000000     0.579780000000     0.746910000000     0.0423086  
H649     H      0.002960000000     0.657320000000     0.775610000000     0.040276   
H650     H      0.001950000000     0.593570000000     0.774920000000     0.0409967  
H651     H      0.975350000000     0.575130000000     0.727790000000     0.0429155  
H652     H      0.030070000000     0.675710000000     0.749490000000     0.0430935  
H653     H      0.974690000000     0.676060000000     0.730080000000     0.0425623  
H654     H      0.001560000000     0.656530000000     0.704460000000     0.0384739  
H655     H      0.029300000000     0.574810000000     0.749250000000     0.0432108  
H656     H      0.002530000000     0.596190000000     0.703780000000     0.0386627  
H657     H      0.738640000000     0.577440000000     0.490340000000     0.0402382  
H658     H      0.739810000000     0.628140000000     0.529130000000     0.0421312  
H659     H      0.770720000000     0.670790000000     0.506070000000     0.0411195  
H660     H      0.715410000000     0.581540000000     0.955920000000     0.0411997  
H661     H      0.774250000000     0.588760000000     0.948320000000     0.0408131  
H662     H      0.750290000000     0.620570000000     0.935130000000     0.0391315  
H663     H      0.714290000000     0.659980000000     0.518160000000     0.0396821  
H664     H      0.746300000000     0.670630000000     0.971810000000     0.0407257  
H665     H      0.851790000000     0.658570000000     0.872260000000     0.0405417  
H666     H      0.848940000000     0.593230000000     0.873050000000     0.0402525  
H667     H      0.887220000000     0.573470000000     0.836390000000     0.0425491  
H668     H      0.884380000000     0.674860000000     0.893080000000     0.0425363  
H669     H      0.892140000000     0.674090000000     0.835560000000     0.0430851  
H670     H      0.921650000000     0.653070000000     0.856630000000     0.039015   
H671     H      0.880060000000     0.574620000000     0.894050000000     0.0432939  
H672     H      0.918880000000     0.591870000000     0.856940000000     0.0391127  
H673     H      0.895720000000     0.593070000000     0.618440000000     0.0410031  
H674     H      0.895940000000     0.657720000000     0.619550000000     0.0406877  
H675     H      0.853410000000     0.676110000000     0.586610000000     0.0428356  
H676     H      0.866310000000     0.574780000000     0.642120000000     0.0429426  
H677     H      0.852370000000     0.575270000000     0.585940000000     0.0427927  
H678     H      0.824410000000     0.595500000000     0.609820000000     0.0387823  
H679     H      0.866310000000     0.675400000000     0.643330000000     0.0431427  
H680     H      0.824830000000     0.656170000000     0.609910000000     0.0385857  
H681     H      0.005640000000     0.590230000000     0.472550000000     0.0400573  
H682     H      0.004100000000     0.654010000000     0.972820000000     0.0406909  
H683     H      0.964850000000     0.672980000000     0.009600000000     0.0431339  
H684     H      0.022970000000     0.572190000000     0.506030000000     0.0428285  
H685     H      0.963860000000     0.572240000000     0.505980000000     0.0426507  
H686     H      0.981290000000     0.590210000000     0.539480000000     0.0393129  
H687     H      0.022500000000     0.672870000000     0.005320000000     0.043611   
H688     H      0.983210000000     0.652150000000     0.040880000000     0.0396341  
H689     H      0.433740000000     0.270650000000     0.732420000000     0.0393653  
H690     H      0.385660000000     0.270670000000     0.692600000000     0.0410866  
H691     H      0.345480000000     0.233810000000     0.710170000000     0.0394977  
H692     H      0.428460000000     0.291170000000     0.768380000000     0.0405223  
H693     H      0.423980000000     0.232460000000     0.772600000000     0.0415511  
H694     H      0.390150000000     0.253370000000     0.785910000000     0.0403302  
H695     H      0.351370000000     0.292520000000     0.704260000000     0.0391293  
H696     H      0.340220000000     0.255140000000     0.745930000000     0.04144    
H697     H      0.332850000000     0.265910000000     0.006580000000     0.0388601  
H698     H      0.376650000000     0.262050000000     0.551500000000     0.0416168  
H699     H      0.420270000000     0.227890000000     0.535750000000     0.0389765  
H700     H      0.343140000000     0.287890000000     0.972640000000     0.0392909  
H701     H      0.346980000000     0.228370000000     0.967660000000     0.040803   
H702     H      0.381460000000     0.249790000000     0.957240000000     0.039975   
H703     H      0.411550000000     0.285260000000     0.545630000000     0.0388548  
H704     H      0.427720000000     0.251770000000     0.501990000000     0.0422793  
H705     H      0.356370000000     0.104430000000     0.876340000000     0.0404393  
H706     H      0.420360000000     0.107990000000     0.876330000000     0.0405755  
H707     H      0.436220000000     0.149070000000     0.840600000000     0.0429897  
H708     H      0.336190000000     0.133980000000     0.898190000000     0.0431347  
H709     H      0.335210000000     0.143760000000     0.841290000000     0.042601   
H710     H      0.353590000000     0.174740000000     0.862880000000     0.0387923  
H711     H      0.437030000000     0.139920000000     0.897820000000     0.0429147  
H712     H      0.415010000000     0.177990000000     0.862280000000     0.0384322  
H713     H      0.418200000000     0.162770000000     0.625820000000     0.0401456  
H714     H      0.354330000000     0.162640000000     0.625740000000     0.0400256  
H715     H      0.335900000000     0.121930000000     0.590780000000     0.0428095  
H716     H      0.436780000000     0.132470000000     0.648100000000     0.0427312  
H717     H      0.437060000000     0.121800000000     0.591260000000     0.042906   
H718     H      0.417130000000     0.092220000000     0.613350000000     0.0392843  
H719     H      0.335750000000     0.132220000000     0.647760000000     0.0432514  
H720     H      0.355530000000     0.092210000000     0.612910000000     0.0391508  
H721     H      0.431840000000     0.761110000000     0.753350000000     0.0415832  
H722     H      0.386370000000     0.762700000000     0.709830000000     0.0399851  
H723     H      0.343150000000     0.730960000000     0.727910000000     0.0410063  
H724     H      0.427080000000     0.787650000000     0.785660000000     0.0394642  
H725     H      0.413920000000     0.731780000000     0.799050000000     0.0405482  
H726     H      0.381350000000     0.758250000000     0.804320000000     0.0411979  
H727     H      0.353890000000     0.788310000000     0.717090000000     0.0404341  
H728     H      0.336530000000     0.756550000000     0.760270000000     0.0397299  
H729     H      0.358330000000     0.016480000000     0.781300000000     0.0400086  
H730     H      0.421140000000     0.018110000000     0.779860000000     0.0399935  
H731     H      0.439860000000     0.982320000000     0.740170000000     0.0428937  
H732     H      0.337940000000     0.037930000000     0.751690000000     0.0429666  
H733     H      0.338840000000     0.980620000000     0.741830000000     0.0430561  
H734     H      0.357140000000     0.002810000000     0.711440000000     0.0398539  
H735     H      0.438930000000     0.040090000000     0.749040000000     0.0429862  
H736     H      0.419860000000     0.003570000000     0.710170000000     0.039728   
H737     H      0.381800000000     0.757640000000     0.546860000000     0.0413485  
H738     H      0.334300000000     0.757820000000     0.505410000000     0.0398544  
H739     H      0.350720000000     0.788050000000     0.960720000000     0.040604   
H740     H      0.412500000000     0.729390000000     0.539970000000     0.0391656  
H741     H      0.427780000000     0.784380000000     0.524960000000     0.0401099  
H742     H      0.429030000000     0.757310000000     0.992800000000     0.0409624  
H743     H      0.337680000000     0.731440000000     0.973210000000     0.0399599  
H744     H      0.381390000000     0.760690000000     0.952130000000     0.0404513  
H745     H      0.422000000000     0.924970000000     0.881380000000     0.0391867  
H746     H      0.360380000000     0.925830000000     0.881250000000     0.0391798  
H747     H      0.340070000000     0.888260000000     0.844160000000     0.0425814  
H748     H      0.441280000000     0.893650000000     0.901560000000     0.0427627  
H749     H      0.441020000000     0.887020000000     0.844090000000     0.0433461  
H750     H      0.422290000000     0.855460000000     0.864320000000     0.0400218  
H751     H      0.340150000000     0.895210000000     0.901580000000     0.0429262  
H752     H      0.358040000000     0.856230000000     0.864480000000     0.0400951  
H753     H      0.361370000000     0.839490000000     0.631820000000     0.0382777  
H754     H      0.422700000000     0.841340000000     0.631510000000     0.0387501  
H755     H      0.441210000000     0.879440000000     0.594080000000     0.04312    
H756     H      0.340600000000     0.869930000000     0.651810000000     0.0428938  
H757     H      0.340300000000     0.875990000000     0.594270000000     0.0428553  
H758     H      0.357430000000     0.908720000000     0.614140000000     0.0405847  
H759     H      0.441720000000     0.873030000000     0.651460000000     0.0426318  
H760     H      0.421930000000     0.910810000000     0.614170000000     0.0406901  
H761     H      0.418520000000     0.009680000000     0.959580000000     0.039797   
H762     H      0.356750000000     0.008430000000     0.962300000000     0.039821   
H763     H      0.339380000000     0.978770000000     0.007860000000     0.0430262  
H764     H      0.438910000000     0.035630000000     0.485400000000     0.0430078  
H765     H      0.440580000000     0.980110000000     0.502980000000     0.0429761  
H766     H      0.421790000000     0.005460000000     0.530560000000     0.0397534  
H767     H      0.337690000000     0.033870000000     0.989600000000     0.0429497  
H768     H      0.360110000000     0.004820000000     0.533320000000     0.039739   
N1       N      0.888750000000     0.385100000000     0.425310000000    -0.165      
N2       N      0.875050000000     0.386080000000     0.361300000000    -0.165161   
N3       N      0.895210000000     0.386470000000     0.174610000000    -0.165462   
N4       N      0.874890000000     0.385270000000     0.112580000000    -0.165349   
N5       N      0.980080000000     0.389430000000     0.278390000000    -0.165739   
N6       N      0.042510000000     0.390730000000     0.257820000000    -0.165335   
N7       N      0.144100000000     0.392760000000     0.345410000000    -0.165596   
N8       N      0.124890000000     0.395140000000     0.407710000000    -0.165601   
N9       N      0.140570000000     0.390250000000     0.094560000000    -0.165518   
N10      N      0.127790000000     0.387950000000     0.158610000000    -0.165416   
N11      N      0.975190000000     0.388970000000     0.026770000000    -0.165953   
N12      N      0.037570000000     0.390440000000     0.006300000000    -0.165484   
N13      N      0.792330000000     0.383860000000     0.258190000000    -0.165987   
N14      N      0.733240000000     0.368420000000     0.235930000000    -0.166693   
N15      N      0.640650000000     0.525440000000     0.246690000000    -0.16515    
N16      N      0.630980000000     0.460210000000     0.245230000000    -0.165048   
N17      N      0.787100000000     0.379260000000     0.013100000000    -0.165692   
N18      N      0.722290000000     0.383580000000     0.021090000000    -0.166224   
N19      N      0.611860000000     0.458650000000     0.009330000000    -0.166291   
N20      N      0.627910000000     0.521440000000     0.501480000000    -0.166182   
N21      N      0.533540000000     0.609850000000     0.254230000000    -0.165483   
N22      N      0.472420000000     0.633680000000     0.258720000000    -0.165412   
N23      N      0.464790000000     0.631740000000     0.494780000000    -0.166516   
N24      N      0.524650000000     0.605810000000     0.490730000000    -0.166467   
N25      N      0.295930000000     0.393630000000     0.253940000000    -0.165785   
N26      N      0.231160000000     0.387380000000     0.245500000000    -0.165466   
N27      N      0.484030000000     0.383790000000     0.242100000000    -0.165922   
N28      N      0.544940000000     0.359850000000     0.238950000000    -0.166283   
N29      N      0.396960000000     0.480260000000     0.258290000000    -0.166669   
N30      N      0.374870000000     0.541420000000     0.261140000000    -0.166863   
N31      N      0.225870000000     0.396500000000     0.994890000000    -0.166507   
N32      N      0.288510000000     0.384240000000     0.007670000000    -0.166334   
N33      N      0.476980000000     0.377020000000     0.004270000000    -0.165525   
N34      N      0.537040000000     0.350930000000     0.006470000000    -0.166069   
N35      N      0.367560000000     0.539700000000     0.503880000000    -0.165341   
N36      N      0.387410000000     0.477050000000     0.001800000000    -0.165196   
N37      N      0.618690000000     0.712630000000     0.242290000000    -0.165724   
N38      N      0.606470000000     0.776470000000     0.248120000000    -0.166081   
N39      N      0.607160000000     0.773760000000     0.473200000000    -0.16671    
N40      N      0.609300000000     0.707060000000     0.477030000000    -0.167035   
N41      N      0.609410000000     0.874610000000     0.389960000000    -0.165387   
N42      N      0.608440000000     0.886190000000     0.325720000000    -0.165844   
N43      N      0.613150000000     0.851420000000     0.075650000000    -0.165663   
N44      N      0.613070000000     0.860840000000     0.140360000000    -0.165173   
N45      N      0.645170000000     0.272930000000     0.228380000000    -0.166092   
N46      N      0.630920000000     0.210060000000     0.238100000000    -0.165943   
N47      N      0.614770000000     0.962380000000     0.220470000000    -0.166664   
N48      N      0.618610000000     0.022430000000     0.245060000000    -0.166369   
N49      N      0.629300000000     0.213380000000     0.997220000000    -0.166574   
N50      N      0.644620000000     0.273630000000     0.016140000000    -0.166254   
N51      N      0.622680000000     0.130900000000     0.397540000000    -0.166463   
N52      N      0.621640000000     0.117150000000     0.334050000000    -0.16633    
N53      N      0.627350000000     0.106450000000     0.147790000000    -0.166384   
N54      N      0.626960000000     0.117710000000     0.083680000000    -0.166156   
N55      N      0.616280000000     0.960940000000     0.495140000000    -0.164796   
N56      N      0.619790000000     0.025630000000     0.482620000000    -0.164774   
N57      N      0.283770000000     0.634320000000     0.266330000000    -0.165993   
N58      N      0.219940000000     0.622350000000     0.274410000000    -0.166268   
N59      N      0.214470000000     0.626430000000     0.513200000000    -0.166525   
N60      N      0.278050000000     0.638850000000     0.519220000000    -0.166732   
N61      N      0.114080000000     0.621120000000     0.355180000000    -0.165448   
N62      N      0.127560000000     0.621970000000     0.419080000000    -0.165551   
N63      N      0.136230000000     0.626460000000     0.168810000000    -0.165107   
N64      N      0.116320000000     0.626880000000     0.106430000000    -0.164894   
N65      N      0.783920000000     0.621280000000     0.247080000000    -0.165917   
N66      N      0.720340000000     0.630810000000     0.236120000000    -0.166386   
N67      N      0.971640000000     0.625630000000     0.228700000000    -0.166417   
N68      N      0.032570000000     0.625240000000     0.252470000000    -0.165773   
N69      N      0.775140000000     0.630610000000     0.476190000000    -0.166727   
N70      N      0.712450000000     0.619190000000     0.489150000000    -0.166708   
N71      N      0.890230000000     0.623660000000     0.332440000000    -0.165108   
N72      N      0.878220000000     0.625020000000     0.396980000000    -0.164727   
N73      N      0.852640000000     0.625710000000     0.082860000000    -0.165619   
N74      N      0.869930000000     0.625050000000     0.145850000000    -0.165127   
N75      N      0.960750000000     0.622530000000     0.508500000000    -0.165673   
N76      N      0.026480000000     0.622470000000     0.503450000000    -0.165403   
N77      N      0.383060000000     0.230400000000     0.243170000000    -0.166559   
N78      N      0.390580000000     0.294410000000     0.235360000000    -0.166987   
N79      N      0.385730000000     0.225580000000     0.999610000000    -0.166052   
N80      N      0.376180000000     0.289120000000     0.010420000000    -0.166194   
N81      N      0.385600000000     0.146960000000     0.337590000000    -0.166568   
N82      N      0.386840000000     0.134230000000     0.401330000000    -0.166251   
N83      N      0.386480000000     0.121180000000     0.087640000000    -0.166323   
N84      N      0.386290000000     0.134940000000     0.151240000000    -0.166028   
N85      N      0.377210000000     0.729020000000     0.264890000000    -0.167054   
N86      N      0.391930000000     0.790230000000     0.250040000000    -0.167195   
N87      N      0.389410000000     0.977960000000     0.239330000000    -0.165293   
N88      N      0.388420000000     0.042520000000     0.252120000000    -0.165236   
N89      N      0.390660000000     0.788620000000     0.491380000000    -0.166074   
N90      N      0.373620000000     0.728140000000     0.508290000000    -0.166166   
N91      N      0.390450000000     0.884930000000     0.340700000000    -0.166323   
N92      N      0.390750000000     0.894940000000     0.404970000000    -0.166488   
N93      N      0.390600000000     0.880590000000     0.090760000000    -0.166613   
N94      N      0.391230000000     0.871280000000     0.154970000000    -0.167003   
N95      N      0.390100000000     0.976160000000     0.006480000000    -0.166643   
N96      N      0.388200000000     0.038020000000     0.986360000000    -0.166557   
N97      N      0.888750000000     0.385100000000     0.925310000000    -0.165088   
N98      N      0.875050000000     0.386080000000     0.861300000000    -0.165163   
N99      N      0.895210000000     0.386470000000     0.674610000000    -0.165461   
N100     N      0.874890000000     0.385270000000     0.612580000000    -0.165351   
N101     N      0.980080000000     0.389430000000     0.778390000000    -0.165754   
N102     N      0.042510000000     0.390730000000     0.757820000000    -0.165333   
N103     N      0.144100000000     0.392760000000     0.845420000000    -0.165524   
N104     N      0.124890000000     0.395140000000     0.907710000000    -0.165622   
N105     N      0.140570000000     0.390250000000     0.594560000000    -0.165455   
N106     N      0.127790000000     0.387950000000     0.658610000000    -0.165417   
N107     N      0.975190000000     0.388970000000     0.526770000000    -0.166008   
N108     N      0.037570000000     0.390440000000     0.506300000000    -0.165417   
N109     N      0.792330000000     0.383860000000     0.758180000000    -0.16598    
N110     N      0.733240000000     0.368420000000     0.735930000000    -0.166693   
N111     N      0.640650000000     0.525440000000     0.746680000000    -0.16515    
N112     N      0.630980000000     0.460210000000     0.745230000000    -0.165054   
N113     N      0.787100000000     0.379260000000     0.513100000000    -0.165901   
N114     N      0.722290000000     0.383580000000     0.521090000000    -0.166138   
N115     N      0.611860000000     0.458650000000     0.509330000000    -0.166388   
N116     N      0.627910000000     0.521440000000     0.001480000000    -0.165776   
N117     N      0.533540000000     0.609850000000     0.754230000000    -0.165486   
N118     N      0.472420000000     0.633680000000     0.758720000000    -0.165366   
N119     N      0.464790000000     0.631740000000     0.994780000000    -0.166576   
N120     N      0.524650000000     0.605810000000     0.990730000000    -0.166524   
N121     N      0.295930000000     0.393630000000     0.753940000000    -0.165784   
N122     N      0.231160000000     0.387380000000     0.745500000000    -0.165462   
N123     N      0.484030000000     0.383790000000     0.742100000000    -0.165922   
N124     N      0.544940000000     0.359850000000     0.738950000000    -0.166287   
N125     N      0.396960000000     0.480260000000     0.758290000000    -0.166668   
N126     N      0.374870000000     0.541420000000     0.761140000000    -0.166856   
N127     N      0.225870000000     0.396500000000     0.494900000000    -0.166311   
N128     N      0.288510000000     0.384240000000     0.507670000000    -0.166521   
N129     N      0.476980000000     0.377020000000     0.504270000000    -0.165634   
N130     N      0.537040000000     0.350930000000     0.506470000000    -0.166176   
N131     N      0.367560000000     0.539700000000     0.003880000000    -0.165227   
N132     N      0.387410000000     0.477050000000     0.501800000000    -0.16531    
N133     N      0.618690000000     0.712630000000     0.742290000000    -0.165732   
N134     N      0.606470000000     0.776470000000     0.748120000000    -0.166076   
N135     N      0.607160000000     0.773760000000     0.973200000000    -0.16663    
N136     N      0.609300000000     0.707060000000     0.977040000000    -0.167216   
N137     N      0.609410000000     0.874610000000     0.889960000000    -0.165381   
N138     N      0.608440000000     0.886190000000     0.825720000000    -0.165906   
N139     N      0.613150000000     0.851420000000     0.575650000000    -0.165691   
N140     N      0.613070000000     0.860840000000     0.640360000000    -0.165176   
N141     N      0.645170000000     0.272930000000     0.728380000000    -0.1661     
N142     N      0.630920000000     0.210060000000     0.738100000000    -0.165943   
N143     N      0.614770000000     0.962380000000     0.720470000000    -0.166666   
N144     N      0.618610000000     0.022430000000     0.745070000000    -0.166369   
N145     N      0.629300000000     0.213380000000     0.497220000000    -0.166379   
N146     N      0.644620000000     0.273630000000     0.516140000000    -0.166415   
N147     N      0.622680000000     0.130900000000     0.897540000000    -0.166463   
N148     N      0.621640000000     0.117150000000     0.834050000000    -0.166327   
N149     N      0.627350000000     0.106450000000     0.647790000000    -0.166383   
N150     N      0.626960000000     0.117710000000     0.583680000000    -0.166183   
N151     N      0.616280000000     0.960940000000     0.995140000000    -0.16473    
N152     N      0.619790000000     0.025630000000     0.982620000000    -0.164832   
N153     N      0.283770000000     0.634320000000     0.766330000000    -0.165986   
N154     N      0.219940000000     0.622350000000     0.774410000000    -0.166281   
N155     N      0.214470000000     0.626430000000     0.013200000000    -0.16631    
N156     N      0.278050000000     0.638850000000     0.019220000000    -0.166863   
N157     N      0.114080000000     0.621120000000     0.855180000000    -0.16545    
N158     N      0.127560000000     0.621970000000     0.919080000000    -0.165572   
N159     N      0.136230000000     0.626460000000     0.668810000000    -0.165108   
N160     N      0.116320000000     0.626880000000     0.606430000000    -0.164888   
N161     N      0.783920000000     0.621280000000     0.747080000000    -0.165906   
N162     N      0.720340000000     0.630810000000     0.736120000000    -0.166451   
N163     N      0.971640000000     0.625630000000     0.728700000000    -0.16642    
N164     N      0.032570000000     0.625240000000     0.752470000000    -0.165774   
N165     N      0.775140000000     0.630610000000     0.976190000000    -0.166652   
N166     N      0.712450000000     0.619190000000     0.989150000000    -0.166866   
N167     N      0.890230000000     0.623660000000     0.832440000000    -0.165094   
N168     N      0.878220000000     0.625020000000     0.896980000000    -0.164669   
N169     N      0.852640000000     0.625710000000     0.582860000000    -0.165643   
N170     N      0.869930000000     0.625050000000     0.645850000000    -0.165133   
N171     N      0.960750000000     0.622530000000     0.008490000000    -0.165872   
N172     N      0.026480000000     0.622470000000     0.003450000000    -0.164931   
N173     N      0.383060000000     0.230400000000     0.743170000000    -0.16654    
N174     N      0.390580000000     0.294410000000     0.735360000000    -0.166992   
N175     N      0.385730000000     0.225580000000     0.499610000000    -0.165921   
N176     N      0.376180000000     0.289120000000     0.510420000000    -0.166313   
N177     N      0.385600000000     0.146960000000     0.837590000000    -0.166569   
N178     N      0.386840000000     0.134230000000     0.901330000000    -0.166248   
N179     N      0.386480000000     0.121180000000     0.587650000000    -0.166273   
N180     N      0.386290000000     0.134940000000     0.651240000000    -0.166028   
N181     N      0.377210000000     0.729020000000     0.764890000000    -0.167046   
N182     N      0.391930000000     0.790230000000     0.750040000000    -0.167199   
N183     N      0.389410000000     0.977960000000     0.739330000000    -0.165301   
N184     N      0.388420000000     0.042520000000     0.752120000000    -0.165234   
N185     N      0.390660000000     0.788620000000     0.991380000000    -0.166307   
N186     N      0.373620000000     0.728140000000     0.008290000000    -0.165968   
N187     N      0.390450000000     0.884930000000     0.840700000000    -0.166322   
N188     N      0.390750000000     0.894940000000     0.904970000000    -0.166492   
N189     N      0.390600000000     0.880590000000     0.590760000000    -0.166636   
N190     N      0.391230000000     0.871280000000     0.654970000000    -0.167002   
N191     N      0.390100000000     0.976160000000     0.506480000000    -0.166634   
N192     N      0.388200000000     0.038020000000     0.486360000000    -0.166598   
O1       O      0.364300000000     0.929370000000     0.002450000000    -0.400709   
O2       O      0.364670000000     0.835330000000     0.991720000000    -0.39862    
O3       O      0.364590000000     0.877990000000     0.044170000000    -0.400174   
O4       O      0.364490000000     0.887850000000     0.450790000000    -0.401688   
O5       O      0.416680000000     0.885740000000     0.450790000000    -0.400089   
O6       O      0.416770000000     0.880490000000     0.044450000000    -0.402556   
O7       O      0.416800000000     0.835090000000     0.496180000000    -0.397527   
O8       O      0.416500000000     0.929840000000     0.500550000000    -0.399539   
O9       O      0.365340000000     0.836330000000     0.247770000000    -0.40093    
O10      O      0.364060000000     0.930890000000     0.244750000000    -0.39882    
O11      O      0.364930000000     0.880900000000     0.200230000000    -0.402529   
O12      O      0.364480000000     0.885110000000     0.293990000000    -0.400257   
O13      O      0.416630000000     0.887920000000     0.294400000000    -0.401357   
O14      O      0.417140000000     0.879260000000     0.200950000000    -0.400726   
O15      O      0.416250000000     0.931480000000     0.243300000000    -0.397138   
O16      O      0.417480000000     0.837010000000     0.252530000000    -0.398401   
O17      O      0.361440000000     0.084150000000     0.992000000000    -0.400349   
O18      O      0.360210000000     0.178780000000     0.995720000000    -0.398105   
O19      O      0.360750000000     0.133220000000     0.447700000000    -0.402296   
O20      O      0.360650000000     0.128670000000     0.041460000000    -0.399539   
O21      O      0.412850000000     0.127030000000     0.041660000000    -0.400004   
O22      O      0.412880000000     0.136380000000     0.448030000000    -0.398547   
O23      O      0.412330000000     0.179220000000     0.000410000000    -0.397474   
O24      O      0.413630000000     0.085060000000     0.990130000000    -0.400121   
O25      O      0.361110000000     0.088690000000     0.248360000000    -0.397562   
O26      O      0.358270000000     0.183170000000     0.240140000000    -0.398151   
O27      O      0.360010000000     0.132620000000     0.197610000000    -0.399973   
O28      O      0.359610000000     0.140240000000     0.291360000000    -0.398851   
O29      O      0.411840000000     0.139660000000     0.291820000000    -0.40156    
O30      O      0.412140000000     0.135800000000     0.198000000000    -0.399929   
O31      O      0.410420000000     0.184580000000     0.244260000000    -0.399583   
O32      O      0.413300000000     0.089920000000     0.247070000000    -0.397924   
O33      O      0.915930000000     0.649840000000     0.497410000000    -0.400627   
O34      O      0.822220000000     0.654130000000     0.485010000000    -0.400995   
O35      O      0.862480000000     0.651860000000     0.037300000000    -0.396643   
O36      O      0.875210000000     0.651490000000     0.443580000000    -0.394455   
O37      O      0.874910000000     0.599410000000     0.443670000000    -0.397884   
O38      O      0.858690000000     0.599910000000     0.036440000000    -0.397103   
O39      O      0.820310000000     0.602130000000     0.481010000000    -0.396762   
O40      O      0.913890000000     0.597810000000     0.498570000000    -0.395854   
O41      O      0.830040000000     0.648670000000     0.246420000000    -0.395341   
O42      O      0.924460000000     0.651020000000     0.233780000000    -0.397152   
O43      O      0.871470000000     0.650400000000     0.192950000000    -0.396228   
O44      O      0.883570000000     0.649800000000     0.286410000000    -0.39803    
O45      O      0.882490000000     0.597740000000     0.286100000000    -0.394893   
O46      O      0.874570000000     0.598410000000     0.191920000000    -0.397318   
O47      O      0.925520000000     0.598950000000     0.234840000000    -0.40063    
O48      O      0.831050000000     0.596700000000     0.241640000000    -0.399381   
O49      O      0.072620000000     0.649200000000     0.509950000000    -0.399801   
O50      O      0.167300000000     0.651280000000     0.511820000000    -0.400314   
O51      O      0.121520000000     0.648840000000     0.464750000000    -0.399275   
O52      O      0.118740000000     0.651740000000     0.058990000000    -0.395623   
O53      O      0.117260000000     0.599710000000     0.060430000000    -0.396725   
O54      O      0.125240000000     0.596910000000     0.466380000000    -0.394992   
O55      O      0.168510000000     0.599440000000     0.517890000000    -0.396538   
O56      O      0.073670000000     0.597130000000     0.509230000000    -0.396209   
O57      O      0.079740000000     0.650740000000     0.256620000000    -0.398168   
O58      O      0.173720000000     0.649240000000     0.271000000000    -0.396463   
O59      O      0.133380000000     0.651410000000     0.216250000000    -0.393893   
O60      O      0.119780000000     0.648440000000     0.309690000000    -0.397776   
O61      O      0.121760000000     0.596410000000     0.308310000000    -0.396395   
O62      O      0.130550000000     0.599440000000     0.214480000000    -0.398566   
O63      O      0.173600000000     0.597400000000     0.265010000000    -0.3989     
O64      O      0.079040000000     0.598660000000     0.257010000000    -0.399609   
O65      O      0.596090000000     0.073800000000     0.986390000000    -0.396302   
O66      O      0.601040000000     0.168030000000     0.496850000000    -0.397853   
O67      O      0.597290000000     0.126370000000     0.444390000000    -0.398475   
O68      O      0.599830000000     0.116540000000     0.037830000000    -0.401033   
O69      O      0.652030000000     0.116900000000     0.036450000000    -0.398389   
O70      O      0.649230000000     0.121150000000     0.442660000000    -0.401713   
O71      O      0.652950000000     0.165920000000     0.990650000000    -0.39767    
O72      O      0.648230000000     0.071120000000     0.987190000000    -0.396191   
O73      O      0.601920000000     0.165160000000     0.235320000000    -0.397054   
O74      O      0.595510000000     0.070830000000     0.243270000000    -0.399041   
O75      O      0.597150000000     0.121250000000     0.286670000000    -0.398343   
O76      O      0.600170000000     0.113660000000     0.193030000000    -0.401448   
O77      O      0.652370000000     0.113030000000     0.194590000000    -0.399135   
O78      O      0.649010000000     0.115360000000     0.288420000000    -0.402529   
O79      O      0.647630000000     0.067460000000     0.242700000000    -0.400609   
O80      O      0.653750000000     0.161910000000     0.241670000000    -0.398609   
O81      O      0.587910000000     0.915610000000     0.488900000000    -0.396343   
O82      O      0.583400000000     0.821200000000     0.480060000000    -0.397577   
O83      O      0.586760000000     0.863100000000     0.030780000000    -0.399464   
O84      O      0.584370000000     0.872740000000     0.437200000000    -0.397545   
O85      O      0.636570000000     0.872540000000     0.435910000000    -0.398288   
O86      O      0.638770000000     0.858770000000     0.029180000000    -0.395724   
O87      O      0.635460000000     0.819180000000     0.475170000000    -0.396334   
O88      O      0.640050000000     0.913020000000     0.489220000000    -0.395916   
O89      O      0.582540000000     0.823060000000     0.237430000000    -0.397246   
O90      O      0.586540000000     0.917240000000     0.227140000000    -0.399228   
O91      O      0.585850000000     0.865100000000     0.186050000000    -0.399433   
O92      O      0.583250000000     0.876170000000     0.279530000000    -0.397151   
O93      O      0.635460000000     0.876790000000     0.280690000000    -0.399738   
O94      O      0.637850000000     0.860700000000     0.187870000000    -0.396351   
O95      O      0.638710000000     0.914820000000     0.226500000000    -0.400292   
O96      O      0.634490000000     0.821770000000     0.243460000000    -0.397759   
O97      O      0.334460000000     0.382430000000     0.480800000000    -0.398475   
O98      O      0.429520000000     0.379040000000     0.478810000000    -0.395589   
O99      O      0.378630000000     0.334160000000     0.482130000000    -0.396553   
O100     O      0.383830000000     0.429050000000     0.477630000000    -0.39413    
O101     O      0.385880000000     0.431220000000     0.029280000000    -0.40045    
O102     O      0.381590000000     0.336730000000     0.033880000000    -0.39769    
O103     O      0.430510000000     0.381540000000     0.030470000000    -0.401385   
O104     O      0.335780000000     0.387200000000     0.032460000000    -0.397695   
O105     O      0.341070000000     0.396120000000     0.225430000000    -0.396777   
O106     O      0.435520000000     0.385980000000     0.218830000000    -0.396451   
O107     O      0.382780000000     0.343630000000     0.216320000000    -0.397803   
O108     O      0.393400000000     0.436870000000     0.227570000000    -0.402647   
O109     O      0.391590000000     0.431000000000     0.278960000000    -0.397974   
O110     O      0.392860000000     0.337140000000     0.266790000000    -0.400313   
O111     O      0.438650000000     0.384440000000     0.270460000000    -0.39999    
O112     O      0.343820000000     0.382900000000     0.275490000000    -0.396811   
O113     O      0.327660000000     0.634030000000     0.038370000000    -0.400311   
O114     O      0.421290000000     0.631750000000     0.025640000000    -0.403991   
O115     O      0.377200000000     0.680760000000     0.032840000000    -0.396094   
O116     O      0.372870000000     0.585890000000     0.030490000000    -0.398917   
O117     O      0.365870000000     0.587460000000     0.479240000000    -0.395551   
O118     O      0.368300000000     0.682320000000     0.481750000000    -0.397892   
O119     O      0.414900000000     0.633590000000     0.474330000000    -0.395792   
O120     O      0.320570000000     0.637510000000     0.487080000000    -0.397489   
O121     O      0.331430000000     0.638530000000     0.290700000000    -0.393381   
O122     O      0.426670000000     0.632340000000     0.286970000000    -0.39509    
O123     O      0.382670000000     0.682230000000     0.289640000000    -0.398742   
O124     O      0.376080000000     0.587680000000     0.288330000000    -0.397101   
O125     O      0.378330000000     0.588640000000     0.236640000000    -0.404278   
O126     O      0.373790000000     0.682820000000     0.238550000000    -0.40066    
O127     O      0.424080000000     0.637290000000     0.235530000000    -0.399637   
O128     O      0.329530000000     0.632670000000     0.239220000000    -0.401608   
O129     O      0.674810000000     0.371990000000     0.042750000000    -0.398368   
O130     O      0.581040000000     0.360690000000     0.035180000000    -0.401317   
O131     O      0.632780000000     0.319700000000     0.040140000000    -0.398971   
O132     O      0.621650000000     0.413910000000     0.037420000000    -0.396974   
O133     O      0.621250000000     0.411730000000     0.485720000000    -0.401286   
O134     O      0.643720000000     0.319920000000     0.489460000000    -0.396935   
O135     O      0.585830000000     0.355360000000     0.483920000000    -0.394716   
O136     O      0.678250000000     0.377870000000     0.491360000000    -0.395809   
O137     O      0.640630000000     0.321650000000     0.207020000000    -0.396945   
O138     O      0.635120000000     0.415750000000     0.215860000000    -0.399755   
O139     O      0.686100000000     0.372590000000     0.210920000000    -0.394974   
O140     O      0.591080000000     0.365610000000     0.212200000000    -0.398706   
O141     O      0.592560000000     0.361000000000     0.263730000000    -0.398946   
O142     O      0.687200000000     0.365530000000     0.262330000000    -0.400373   
O143     O      0.637030000000     0.411410000000     0.267380000000    -0.393781   
O144     O      0.643620000000     0.316800000000     0.258590000000    -0.396514   
O145     O      0.666120000000     0.611370000000     0.463950000000    -0.399483   
O146     O      0.571110000000     0.609040000000     0.463830000000    -0.397164   
O147     O      0.617590000000     0.657900000000     0.457520000000    -0.396883   
O148     O      0.620560000000     0.564080000000     0.470170000000    -0.4003     
O149     O      0.625160000000     0.571320000000     0.021210000000    -0.397363   
O150     O      0.611160000000     0.664220000000     0.008580000000    -0.398763   
O151     O      0.571740000000     0.611260000000     0.015520000000    -0.401472   
O152     O      0.665510000000     0.624930000000     0.014020000000    -0.397931   
O153     O      0.671910000000     0.622490000000     0.215010000000    -0.397216   
O154     O      0.577820000000     0.612790000000     0.224210000000    -0.399508   
O155     O      0.618590000000     0.664970000000     0.218230000000    -0.397668   
O156     O      0.630400000000     0.571080000000     0.220800000000    -0.400288   
O157     O      0.635860000000     0.572680000000     0.272230000000    -0.392799   
O158     O      0.625270000000     0.667310000000     0.269630000000    -0.395711   
O159     O      0.582750000000     0.614750000000     0.275680000000    -0.395315   
O160     O      0.676760000000     0.626680000000     0.266510000000    -0.396785   
O161     O      0.179960000000     0.368900000000     0.994790000000    -0.397341   
O162     O      0.085390000000     0.365720000000     0.004820000000    -0.397433   
O163     O      0.127840000000     0.368380000000     0.453650000000    -0.400175   
O164     O      0.137700000000     0.365630000000     0.047170000000    -0.397268   
O165     O      0.133420000000     0.417500000000     0.049160000000    -0.397448   
O166     O      0.129230000000     0.420430000000     0.454800000000    -0.39471    
O167     O      0.083800000000     0.417780000000     0.003980000000    -0.398544   
O168     O      0.178620000000     0.420700000000     0.001050000000    -0.398363   
O169     O      0.184820000000     0.414680000000     0.245640000000    -0.393837   
O170     O      0.089830000000     0.416590000000     0.255770000000    -0.394906   
O171     O      0.142200000000     0.417360000000     0.297990000000    -0.3969     
O172     O      0.132270000000     0.414670000000     0.204480000000    -0.399586   
O173     O      0.134110000000     0.362630000000     0.205470000000    -0.394803   
O174     O      0.138910000000     0.365410000000     0.299800000000    -0.397629   
O175     O      0.089280000000     0.364530000000     0.254980000000    -0.399931   
O176     O      0.183980000000     0.362830000000     0.251320000000    -0.398952   
O177     O      0.835050000000     0.356170000000     0.017900000000    -0.399233   
O178     O      0.929640000000     0.361010000000     0.021810000000    -0.399513   
O179     O      0.880020000000     0.358960000000     0.066360000000    -0.396865   
O180     O      0.884780000000     0.358810000000     0.471930000000    -0.394646   
O181     O      0.884340000000     0.410880000000     0.471790000000    -0.398418   
O182     O      0.875350000000     0.410830000000     0.065580000000    -0.396327   
O183     O      0.927120000000     0.413020000000     0.023070000000    -0.396156   
O184     O      0.832360000000     0.408090000000     0.013300000000    -0.394598   
O185     O      0.839460000000     0.359400000000     0.264840000000    -0.398746   
O186     O      0.934100000000     0.362160000000     0.272510000000    -0.398374   
O187     O      0.882480000000     0.360480000000     0.315090000000    -0.398627   
O188     O      0.890930000000     0.360670000000     0.221270000000    -0.397473   
O189     O      0.891260000000     0.412750000000     0.220970000000    -0.396349   
O190     O      0.879200000000     0.412450000000     0.314760000000    -0.393923   
O191     O      0.932500000000     0.414200000000     0.273800000000    -0.396634   
O192     O      0.838220000000     0.411410000000     0.260830000000    -0.396325   
O193     O      0.364300000000     0.929370000000     0.502450000000    -0.400998   
O194     O      0.364670000000     0.835330000000     0.491720000000    -0.398629   
O195     O      0.364590000000     0.877990000000     0.544170000000    -0.400438   
O196     O      0.364490000000     0.887850000000     0.950780000000    -0.401631   
O197     O      0.416680000000     0.885740000000     0.950790000000    -0.400081   
O198     O      0.416770000000     0.880490000000     0.544450000000    -0.402801   
O199     O      0.416800000000     0.835090000000     0.996180000000    -0.397558   
O200     O      0.416500000000     0.929840000000     0.000550000000    -0.399257   
O201     O      0.365340000000     0.836330000000     0.747770000000    -0.400942   
O202     O      0.364060000000     0.930890000000     0.744750000000    -0.398825   
O203     O      0.364930000000     0.880900000000     0.700230000000    -0.402533   
O204     O      0.364480000000     0.885110000000     0.793990000000    -0.400256   
O205     O      0.416630000000     0.887920000000     0.794400000000    -0.401354   
O206     O      0.417140000000     0.879260000000     0.700950000000    -0.400732   
O207     O      0.416250000000     0.931480000000     0.743300000000    -0.397139   
O208     O      0.417480000000     0.837010000000     0.752530000000    -0.398395   
O209     O      0.361440000000     0.084150000000     0.492000000000    -0.400335   
O210     O      0.360210000000     0.178780000000     0.495720000000    -0.398162   
O211     O      0.360750000000     0.133220000000     0.947700000000    -0.402262   
O212     O      0.360650000000     0.128670000000     0.541460000000    -0.399759   
O213     O      0.412850000000     0.127030000000     0.541660000000    -0.40023    
O214     O      0.412880000000     0.136380000000     0.948030000000    -0.398504   
O215     O      0.412330000000     0.179220000000     0.500410000000    -0.398025   
O216     O      0.413630000000     0.085060000000     0.490130000000    -0.400145   
O217     O      0.361110000000     0.088690000000     0.748360000000    -0.397566   
O218     O      0.358270000000     0.183170000000     0.740140000000    -0.398154   
O219     O      0.360010000000     0.132620000000     0.697610000000    -0.399978   
O220     O      0.359610000000     0.140240000000     0.791360000000    -0.398856   
O221     O      0.411840000000     0.139660000000     0.791820000000    -0.401557   
O222     O      0.412140000000     0.135800000000     0.698000000000    -0.39993    
O223     O      0.410420000000     0.184580000000     0.744260000000    -0.399581   
O224     O      0.413300000000     0.089920000000     0.747070000000    -0.397924   
O225     O      0.915930000000     0.649840000000     0.997410000000    -0.401096   
O226     O      0.822220000000     0.654130000000     0.985010000000    -0.401047   
O227     O      0.862480000000     0.651860000000     0.537300000000    -0.396878   
O228     O      0.875210000000     0.651490000000     0.943580000000    -0.394517   
O229     O      0.874910000000     0.599410000000     0.943670000000    -0.397948   
O230     O      0.858690000000     0.599910000000     0.536440000000    -0.397342   
O231     O      0.820310000000     0.602130000000     0.981010000000    -0.396785   
O232     O      0.913890000000     0.597810000000     0.998570000000    -0.39633    
O233     O      0.830040000000     0.648670000000     0.746420000000    -0.395328   
O234     O      0.924460000000     0.651020000000     0.733780000000    -0.397166   
O235     O      0.871470000000     0.650400000000     0.692950000000    -0.396322   
O236     O      0.883570000000     0.649800000000     0.786410000000    -0.397907   
O237     O      0.882490000000     0.597740000000     0.786090000000    -0.394901   
O238     O      0.874570000000     0.598410000000     0.691920000000    -0.397351   
O239     O      0.925520000000     0.598950000000     0.734840000000    -0.400642   
O240     O      0.831050000000     0.596700000000     0.741640000000    -0.399391   
O241     O      0.072620000000     0.649200000000     0.009950000000    -0.399727   
O242     O      0.167300000000     0.651280000000     0.011820000000    -0.400227   
O243     O      0.121520000000     0.648840000000     0.964750000000    -0.399429   
O244     O      0.118740000000     0.651740000000     0.558990000000    -0.395499   
O245     O      0.117260000000     0.599710000000     0.560430000000    -0.396667   
O246     O      0.125240000000     0.596910000000     0.966380000000    -0.395228   
O247     O      0.168510000000     0.599440000000     0.017890000000    -0.396498   
O248     O      0.073670000000     0.597130000000     0.009230000000    -0.396137   
O249     O      0.079740000000     0.650740000000     0.756620000000    -0.398173   
O250     O      0.173720000000     0.649240000000     0.771000000000    -0.396478   
O251     O      0.133380000000     0.651410000000     0.716250000000    -0.393899   
O252     O      0.119780000000     0.648440000000     0.809690000000    -0.397778   
O253     O      0.121760000000     0.596410000000     0.808310000000    -0.396388   
O254     O      0.130550000000     0.599440000000     0.714480000000    -0.398575   
O255     O      0.173600000000     0.597400000000     0.765020000000    -0.398921   
O256     O      0.079040000000     0.598660000000     0.757010000000    -0.399609   
O257     O      0.596090000000     0.073800000000     0.486390000000    -0.396285   
O258     O      0.601040000000     0.168030000000     0.996850000000    -0.397935   
O259     O      0.597290000000     0.126370000000     0.944390000000    -0.398444   
O260     O      0.599830000000     0.116540000000     0.537830000000    -0.401287   
O261     O      0.652030000000     0.116900000000     0.536450000000    -0.398647   
O262     O      0.649230000000     0.121150000000     0.942660000000    -0.40168    
O263     O      0.652950000000     0.165920000000     0.490650000000    -0.397631   
O264     O      0.648230000000     0.071120000000     0.487190000000    -0.396173   
O265     O      0.601920000000     0.165160000000     0.735320000000    -0.397054   
O266     O      0.595510000000     0.070830000000     0.743270000000    -0.39904    
O267     O      0.597150000000     0.121250000000     0.786670000000    -0.39834    
O268     O      0.600170000000     0.113660000000     0.693030000000    -0.401451   
O269     O      0.652370000000     0.113030000000     0.694590000000    -0.399139   
O270     O      0.649010000000     0.115360000000     0.788420000000    -0.40253    
O271     O      0.647630000000     0.067460000000     0.742700000000    -0.400611   
O272     O      0.653750000000     0.161910000000     0.741670000000    -0.398612   
O273     O      0.587910000000     0.915610000000     0.988900000000    -0.39636    
O274     O      0.583400000000     0.821200000000     0.980060000000    -0.397616   
O275     O      0.586760000000     0.863100000000     0.530780000000    -0.399721   
O276     O      0.584370000000     0.872740000000     0.937200000000    -0.397504   
O277     O      0.636570000000     0.872540000000     0.935910000000    -0.398249   
O278     O      0.638770000000     0.858770000000     0.529180000000    -0.395989   
O279     O      0.635460000000     0.819180000000     0.975170000000    -0.396345   
O280     O      0.640050000000     0.913020000000     0.989220000000    -0.395935   
O281     O      0.582540000000     0.823060000000     0.737430000000    -0.397244   
O282     O      0.586540000000     0.917240000000     0.727140000000    -0.399228   
O283     O      0.585850000000     0.865100000000     0.686050000000    -0.399438   
O284     O      0.583250000000     0.876170000000     0.779530000000    -0.397064   
O285     O      0.635460000000     0.876790000000     0.780690000000    -0.399647   
O286     O      0.637850000000     0.860700000000     0.687870000000    -0.396363   
O287     O      0.638710000000     0.914820000000     0.726500000000    -0.400291   
O288     O      0.634490000000     0.821770000000     0.743470000000    -0.397737   
O289     O      0.334460000000     0.382430000000     0.980800000000    -0.398773   
O290     O      0.429520000000     0.379040000000     0.978810000000    -0.395902   
O291     O      0.378630000000     0.334160000000     0.982140000000    -0.397008   
O292     O      0.383830000000     0.429050000000     0.977630000000    -0.394442   
O293     O      0.385880000000     0.431220000000     0.529280000000    -0.400348   
O294     O      0.381590000000     0.336730000000     0.533880000000    -0.397536   
O295     O      0.430510000000     0.381540000000     0.530470000000    -0.401284   
O296     O      0.335780000000     0.387200000000     0.532460000000    -0.397602   
O297     O      0.341070000000     0.396120000000     0.725430000000    -0.396777   
O298     O      0.435520000000     0.385980000000     0.718830000000    -0.39645    
O299     O      0.382780000000     0.343630000000     0.716320000000    -0.397804   
O300     O      0.393400000000     0.436870000000     0.727570000000    -0.402646   
O301     O      0.391590000000     0.431000000000     0.778960000000    -0.397974   
O302     O      0.392860000000     0.337140000000     0.766790000000    -0.400314   
O303     O      0.438650000000     0.384440000000     0.770460000000    -0.39999    
O304     O      0.343820000000     0.382900000000     0.775490000000    -0.396812   
O305     O      0.327660000000     0.634030000000     0.538370000000    -0.40021    
O306     O      0.421290000000     0.631750000000     0.525640000000    -0.404317   
O307     O      0.377200000000     0.680760000000     0.532840000000    -0.396014   
O308     O      0.372870000000     0.585890000000     0.530490000000    -0.39883    
O309     O      0.365870000000     0.587460000000     0.979240000000    -0.395847   
O310     O      0.368300000000     0.682320000000     0.981750000000    -0.398171   
O311     O      0.414900000000     0.633590000000     0.974320000000    -0.395577   
O312     O      0.320570000000     0.637510000000     0.987080000000    -0.397803   
O313     O      0.331430000000     0.638530000000     0.790700000000    -0.393363   
O314     O      0.426670000000     0.632340000000     0.786970000000    -0.395018   
O315     O      0.382670000000     0.682230000000     0.789640000000    -0.398726   
O316     O      0.376080000000     0.587680000000     0.788330000000    -0.397084   
O317     O      0.378330000000     0.588640000000     0.736640000000    -0.404251   
O318     O      0.373790000000     0.682820000000     0.738550000000    -0.400637   
O319     O      0.424080000000     0.637290000000     0.735520000000    -0.39946    
O320     O      0.329530000000     0.632670000000     0.739220000000    -0.401584   
O321     O      0.674810000000     0.371990000000     0.542750000000    -0.398278   
O322     O      0.581040000000     0.360690000000     0.535180000000    -0.401193   
O323     O      0.632780000000     0.319700000000     0.540140000000    -0.398841   
O324     O      0.621650000000     0.413910000000     0.537420000000    -0.396847   
O325     O      0.621250000000     0.411730000000     0.985720000000    -0.401623   
O326     O      0.643720000000     0.319920000000     0.989460000000    -0.397268   
O327     O      0.585830000000     0.355360000000     0.983920000000    -0.395062   
O328     O      0.678250000000     0.377870000000     0.991350000000    -0.396014   
O329     O      0.640630000000     0.321650000000     0.707020000000    -0.396958   
O330     O      0.635120000000     0.415750000000     0.715860000000    -0.399771   
O331     O      0.686100000000     0.372590000000     0.710920000000    -0.394987   
O332     O      0.591080000000     0.365610000000     0.712200000000    -0.398719   
O333     O      0.592560000000     0.361000000000     0.763730000000    -0.398969   
O334     O      0.687200000000     0.365530000000     0.762330000000    -0.400394   
O335     O      0.637030000000     0.411410000000     0.767380000000    -0.39381    
O336     O      0.643620000000     0.316800000000     0.758590000000    -0.396527   
O337     O      0.666120000000     0.611370000000     0.963950000000    -0.399382   
O338     O      0.571110000000     0.609040000000     0.963820000000    -0.396918   
O339     O      0.617590000000     0.657900000000     0.957520000000    -0.396794   
O340     O      0.620560000000     0.564080000000     0.970170000000    -0.400039   
O341     O      0.625160000000     0.571320000000     0.521210000000    -0.397649   
O342     O      0.611160000000     0.664220000000     0.508580000000    -0.399074   
O343     O      0.571740000000     0.611260000000     0.515520000000    -0.401835   
O344     O      0.665510000000     0.624930000000     0.514020000000    -0.398247   
O345     O      0.671910000000     0.622490000000     0.715010000000    -0.397311   
O346     O      0.577820000000     0.612790000000     0.724210000000    -0.399522   
O347     O      0.618590000000     0.664970000000     0.718230000000    -0.397695   
O348     O      0.630400000000     0.571080000000     0.720800000000    -0.400304   
O349     O      0.635860000000     0.572680000000     0.772230000000    -0.392819   
O350     O      0.625270000000     0.667310000000     0.769630000000    -0.395728   
O351     O      0.582750000000     0.614750000000     0.775680000000    -0.395332   
O352     O      0.676760000000     0.626680000000     0.766500000000    -0.396956   
O353     O      0.179960000000     0.368900000000     0.494790000000    -0.397157   
O354     O      0.085390000000     0.365720000000     0.504820000000    -0.397429   
O355     O      0.127840000000     0.368380000000     0.953650000000    -0.400426   
O356     O      0.137700000000     0.365630000000     0.547170000000    -0.397316   
O357     O      0.133420000000     0.417500000000     0.549160000000    -0.397487   
O358     O      0.129230000000     0.420430000000     0.954800000000    -0.394949   
O359     O      0.083800000000     0.417780000000     0.503980000000    -0.398573   
O360     O      0.178620000000     0.420700000000     0.501050000000    -0.398683   
O361     O      0.184820000000     0.414680000000     0.745640000000    -0.393828   
O362     O      0.089830000000     0.416590000000     0.755770000000    -0.394906   
O363     O      0.142200000000     0.417360000000     0.797990000000    -0.396869   
O364     O      0.132270000000     0.414670000000     0.704480000000    -0.399587   
O365     O      0.134110000000     0.362630000000     0.705470000000    -0.394815   
O366     O      0.138910000000     0.365410000000     0.799800000000    -0.397594   
O367     O      0.089280000000     0.364530000000     0.754980000000    -0.399934   
O368     O      0.183980000000     0.362830000000     0.751330000000    -0.398936   
O369     O      0.835050000000     0.356170000000     0.517900000000    -0.399276   
O370     O      0.929640000000     0.361010000000     0.521810000000    -0.399554   
O371     O      0.880020000000     0.358960000000     0.566360000000    -0.396829   
O372     O      0.884780000000     0.358810000000     0.971930000000    -0.39481    
O373     O      0.884340000000     0.410880000000     0.971790000000    -0.398581   
O374     O      0.875350000000     0.410830000000     0.565580000000    -0.396286   
O375     O      0.927120000000     0.413020000000     0.523070000000    -0.396188   
O376     O      0.832360000000     0.408090000000     0.513300000000    -0.394689   
O377     O      0.839460000000     0.359400000000     0.764840000000    -0.398761   
O378     O      0.934100000000     0.362160000000     0.772510000000    -0.398367   
O379     O      0.882480000000     0.360480000000     0.815090000000    -0.39864    
O380     O      0.890930000000     0.360670000000     0.721270000000    -0.397467   
O381     O      0.891260000000     0.412750000000     0.720970000000    -0.39634    
O382     O      0.879200000000     0.412450000000     0.814760000000    -0.393934   
O383     O      0.932500000000     0.414200000000     0.773800000000    -0.396629   
O384     O      0.838220000000     0.411410000000     0.760830000000    -0.396327   


