data_structure

_audit_creation_method RASPA-1.0
_audit_creation_date 2023-5-22
_audit_author_name 'Poobodin Mano'

_cell_length_a    32.0996
_cell_length_b    32.0575
_cell_length_c    31.9333
_cell_angle_alpha 90
_cell_angle_beta  90
_cell_angle_gamma 90
_cell_volume      32860.4

_symmetry_cell_setting          triclinic
_symmetry_space_group_name_Hall 'P 1'
_symmetry_space_group_name_H-M  'P 1'
_symmetry_Int_Tables_number     1

_symmetry_equiv_pos_as_xyz 'x,y,z'

loop_
_atom_site_label
_atom_site_type_symbol
_atom_site_fract_x
_atom_site_fract_y
_atom_site_fract_z
_atom_site_charge
C1       C      0.740320000000     0.334290000000     0.009510000000     0.398177   
C2       C      0.575020000000     0.344110000000     0.010220000000     0.399964   
C3       C      0.660920000000     0.423020000000     0.007030000000     0.39616    
C4       C      0.653310000000     0.257140000000     0.011510000000     0.398206   
C5       C      0.411300000000     0.314380000000     0.017300000000     0.400049   
C6       C      0.247480000000     0.333860000000     0.031060000000     0.398819   
C7       C      0.321620000000     0.241200000000     0.026010000000     0.398043   
C8       C      0.339410000000     0.406250000000     0.021100000000     0.397181   
C9       C      0.751070000000     0.680630000000     0.994090000000     0.400671   
C10      C      0.584970000000     0.675070000000     0.995190000000     0.398257   
C11      C      0.672630000000     0.594460000000     0.000060000000     0.39632    
C12      C      0.665120000000     0.760070000000     0.987880000000     0.401512   
C13      C      0.247490000000     0.659310000000     0.997050000000     0.40089    
C14      C      0.413740000000     0.657990000000     0.998750000000     0.398485   
C15      C      0.329380000000     0.576110000000     0.006870000000     0.397399   
C16      C      0.329110000000     0.741480000000     0.990310000000     0.401516   
C17      C      0.601520000000     0.006250000000     0.659650000000     0.399726   
C18      C      0.766350000000     0.997580000000     0.672340000000     0.40161    
C19      C      0.678060000000     0.006150000000     0.750310000000     0.398992   
C20      C      0.689590000000     0.996910000000     0.584320000000     0.400294   
C21      C      0.430910000000     0.014270000000     0.668450000000     0.399167   
C22      C      0.265740000000     0.021120000000     0.679010000000     0.399898   
C23      C      0.354730000000     0.024250000000     0.755180000000     0.401601   
C24      C      0.341990000000     0.010570000000     0.589620000000     0.397887   
C25      C      0.239510000000     0.983530000000     0.328550000000     0.401364   
C26      C      0.402940000000     0.000820000000     0.349970000000     0.400842   
C27      C      0.311480000000     0.998100000000     0.422340000000     0.398911   
C28      C      0.329420000000     0.987130000000     0.256730000000     0.399475   
C29      C      0.737180000000     0.992290000000     0.335540000000     0.400737   
C30      C      0.571870000000     0.001890000000     0.335810000000     0.400049   
C31      C      0.654910000000     0.993740000000     0.419270000000     0.400587   
C32      C      0.654050000000     0.002240000000     0.253180000000     0.401898   
C33      C      0.026160000000     0.679180000000     0.742340000000     0.399451   
C34      C      0.015660000000     0.696870000000     0.577120000000     0.400384   
C35      C      0.028090000000     0.605890000000     0.649960000000     0.400522   
C36      C      0.012750000000     0.769850000000     0.666570000000     0.401763   
C37      C      0.024870000000     0.439790000000     0.678390000000     0.400173   
C38      C      0.010920000000     0.275450000000     0.696850000000     0.4004     
C39      C      0.021500000000     0.365920000000     0.769470000000     0.402263   
C40      C      0.014890000000     0.349680000000     0.603810000000     0.398959   
C41      C      0.010140000000     0.665480000000     0.411130000000     0.399896   
C42      C      0.005120000000     0.647020000000     0.245510000000     0.399222   
C43      C      0.999600000000     0.738360000000     0.320160000000     0.401072   
C44      C      0.014980000000     0.574330000000     0.340130000000     0.399904   
C45      C      0.007150000000     0.320690000000     0.435050000000     0.398913   
C46      C      0.003690000000     0.321190000000     0.268630000000     0.400491   
C47      C      0.995890000000     0.238510000000     0.352700000000     0.402089   
C48      C      0.012970000000     0.403290000000     0.348840000000     0.398967   
C49      C      0.912450000000     0.331520000000     0.010610000000     0.398754   
C50      C      0.077620000000     0.331490000000     0.021600000000     0.399382   
C51      C      0.999850000000     0.339570000000     0.934160000000     0.403318   
C52      C      0.989420000000     0.322180000000     0.098990000000     0.4014     
C53      C      0.917730000000     0.691470000000     0.984880000000     0.401001   
C54      C      0.079050000000     0.657820000000     0.002180000000     0.399268   
C55      C      0.006760000000     0.681820000000     0.910900000000     0.398686   
C56      C      0.990090000000     0.667880000000     0.076210000000     0.399176   
C57      C      0.069260000000     0.983870000000     0.321720000000     0.399272   
C58      C      0.904920000000     0.996370000000     0.316570000000     0.400054   
C59      C      0.993770000000     0.070870000000     0.326760000000     0.399594   
C60      C      0.980950000000     0.906990000000     0.310090000000     0.399266   
C61      C      0.929560000000     0.023210000000     0.690860000000     0.40126    
C62      C      0.094720000000     0.020020000000     0.681230000000     0.399956   
C63      C      0.011740000000     0.939790000000     0.681390000000     0.401595   
C64      C      0.013260000000     0.104960000000     0.691180000000     0.399961   
C65      C      0.647970000000     0.088330000000     0.013580000000     0.400839   
C66      C      0.677120000000     0.926590000000     0.994670000000     0.402747   
C67      C      0.667150000000     0.997780000000     0.084480000000     0.401213   
C68      C      0.658380000000     0.017220000000     0.919520000000     0.399461   
C69      C      0.344940000000     0.077150000000     0.003090000000     0.397709   
C70      C      0.339020000000     0.911350000000     0.000750000000     0.395092   
C71      C      0.342860000000     0.993610000000     0.085840000000     0.398423   
C72      C      0.341410000000     0.996120000000     0.919330000000     0.399999   
C73      C      0.016380000000     0.169620000000     0.380330000000    -0.0118391  
C74      C      0.956750000000     0.176750000000     0.329510000000    -0.0108144  
C75      C      0.031220000000     0.130570000000     0.357130000000    -0.0114762  
C76      C      0.974620000000     0.141230000000     0.303190000000    -0.0106122  
C77      C      0.960310000000     0.346500000000     0.165950000000    -0.0104461  
C78      C      0.004340000000     0.281470000000     0.162670000000    -0.0118727  
C79      C      0.982870000000     0.359840000000     0.205830000000    -0.00987775 
C80      C      0.029610000000     0.296680000000     0.200380000000    -0.0103469  
C81      C      0.054950000000     0.466690000000     0.332900000000    -0.0128601  
C82      C      0.976790000000     0.470280000000     0.340120000000    -0.0106007  
C83      C      0.058030000000     0.510650000000     0.352580000000    -0.0121403  
C84      C      0.981090000000     0.510080000000     0.365080000000    -0.0104683  
C85      C      0.966780000000     0.801450000000     0.348230000000    -0.0114436  
C86      C      0.026020000000     0.806360000000     0.296230000000    -0.0103254  
C87      C      0.947120000000     0.840430000000     0.328960000000    -0.0106449  
C88      C      0.003630000000     0.842570000000     0.274550000000    -0.0126379  
C89      C      0.014960000000     0.691800000000     0.144590000000    -0.0115543  
C90      C      0.957710000000     0.637890000000     0.139910000000    -0.0119589  
C91      C      0.036400000000     0.665770000000     0.178020000000    -0.0106074  
C92      C      0.974410000000     0.617670000000     0.180480000000    -0.0111626  
C93      C      0.973620000000     0.352110000000     0.538200000000    -0.0118093  
C94      C      0.051730000000     0.345850000000     0.535680000000    -0.0120249  
C95      C      0.969990000000     0.319650000000     0.503250000000    -0.0113046  
C96      C      0.047730000000     0.313420000000     0.500810000000    -0.0117257  
C97      C      0.029740000000     0.317290000000     0.867010000000    -0.0105895  
C98      C      0.972380000000     0.371400000000     0.869790000000    -0.010838   
C99      C      0.053540000000     0.344720000000     0.836040000000    -0.0110578  
C100     C      0.994290000000     0.396050000000     0.835240000000    -0.00872278 
C101     C      0.047310000000     0.168520000000     0.716590000000    -0.012064   
C102     C      0.988180000000     0.171740000000     0.664040000000    -0.0090069  
C103     C      0.034270000000     0.211610000000     0.732990000000    -0.010617   
C104     C      0.971600000000     0.210640000000     0.685830000000    -0.0103001  
C105     C      0.972960000000     0.701380000000     0.512410000000    -0.0110919  
C106     C      0.050440000000     0.707060000000     0.508500000000    -0.0110821  
C107     C      0.973540000000     0.666690000000     0.479510000000    -0.011833   
C108     C      0.051910000000     0.672170000000     0.476000000000    -0.0120262  
C109     C      0.989150000000     0.507510000000     0.672010000000    -0.0106601  
C110     C      0.067650000000     0.504670000000     0.677580000000    -0.0129625  
C111     C      0.993320000000     0.538570000000     0.636470000000    -0.0102504  
C112     C      0.070460000000     0.540660000000     0.645630000000    -0.0119935  
C113     C      0.044240000000     0.878210000000     0.650130000000    -0.0113523  
C114     C      0.994910000000     0.871400000000     0.711520000000    -0.00924832 
C115     C      0.028290000000     0.836750000000     0.632990000000    -0.0107075  
C116     C      0.976110000000     0.832380000000     0.691660000000    -0.0101531  
C117     C      0.002650000000     0.641870000000     0.805430000000    -0.0115993  
C118     C      0.058310000000     0.696790000000     0.810690000000    -0.0117832  
C119     C      0.979460000000     0.661520000000     0.841970000000    -0.00953978 
C120     C      0.034990000000     0.716880000000     0.847750000000    -0.0114474  
C121     C      0.804710000000     0.014380000000     0.364600000000    -0.0109361  
C122     C      0.800870000000     0.958170000000     0.309330000000    -0.0111354  
C123     C      0.842690000000     0.032940000000     0.342670000000    -0.0104262  
C124     C      0.836760000000     0.979030000000     0.285600000000    -0.0108505  
C125     C      0.622480000000     0.980390000000     0.186480000000    -0.0110039  
C126     C      0.678610000000     0.035610000000     0.188310000000    -0.0109859  
C127     C      0.642680000000     0.961250000000     0.147730000000    -0.00989555 
C128     C      0.700720000000     0.014000000000     0.151830000000    -0.0107184  
C129     C      0.466980000000     0.044670000000     0.356130000000    -0.0121822  
C130     C      0.470250000000     0.967420000000     0.366560000000    -0.0108626  
C131     C      0.506030000000     0.042440000000     0.328060000000    -0.012691   
C132     C      0.504980000000     0.964100000000     0.334560000000    -0.0111126  
C133     C      0.177480000000     0.005200000000     0.288910000000    -0.0103792  
C134     C      0.174670000000     0.943150000000     0.336880000000    -0.0104638  
C135     C      0.134580000000     0.019120000000     0.304080000000    -0.01194    
C136     C      0.133550000000     0.958850000000     0.355220000000    -0.0110014  
C137     C      0.353950000000     0.952700000000     0.191900000000    -0.0107387  
C138     C      0.298100000000     0.007800000000     0.189900000000    -0.010675   
C139     C      0.374540000000     0.972510000000     0.153220000000    -0.0115234  
C140     C      0.317320000000     0.026320000000     0.150430000000    -0.01134    
C141     C      0.305880000000     0.041900000000     0.486330000000    -0.011865   
C142     C      0.304710000000     0.964180000000     0.492110000000    -0.0116339  
C143     C      0.340150000000     0.044150000000     0.519620000000    -0.0122574  
C144     C      0.338290000000     0.965850000000     0.526180000000    -0.0123105  
C145     C      0.373120000000     0.975610000000     0.852180000000    -0.0104451  
C146     C      0.308550000000     0.020640000000     0.853910000000    -0.0111997  
C147     C      0.392110000000     0.004370000000     0.819290000000    -0.00911898 
C148     C      0.328870000000     0.050780000000     0.822540000000    -0.0112516  
C149     C      0.202320000000     0.998750000000     0.716100000000    -0.0113719  
C150     C      0.199770000000     0.056450000000     0.662490000000    -0.0106216  
C151     C      0.159210000000     0.984000000000     0.701820000000    -0.0115973  
C152     C      0.159620000000     0.038210000000     0.644650000000    -0.0108579  
C153     C      0.653500000000     0.031300000000     0.486900000000    -0.0113578  
C154     C      0.658000000000     0.953090000000     0.485810000000    -0.01243    
C155     C      0.691020000000     0.033110000000     0.515940000000    -0.0110291  
C156     C      0.693180000000     0.955060000000     0.518540000000    -0.0122582  
C157     C      0.498640000000     0.050790000000     0.674460000000    -0.0120478  
C158     C      0.495270000000     0.972230000000     0.673650000000    -0.0117425  
C159     C      0.538130000000     0.049000000000     0.647670000000    -0.0117524  
C160     C      0.534110000000     0.971040000000     0.646130000000    -0.0116733  
C161     C      0.863900000000     0.000720000000     0.724620000000    -0.0116945  
C162     C      0.863220000000     0.047860000000     0.661450000000    -0.00946042 
C163     C      0.832190000000     0.971710000000     0.702980000000    -0.0113432  
C164     C      0.832180000000     0.019170000000     0.640020000000    -0.00951488 
C165     C      0.651820000000     0.976420000000     0.816320000000    -0.0109075  
C166     C      0.702270000000     0.037050000000     0.816660000000    -0.011968   
C167     C      0.627340000000     0.997070000000     0.851790000000    -0.0113674  
C168     C      0.680170000000     0.054660000000     0.855350000000    -0.0108632  
C169     C      0.349090000000     0.807070000000     0.955300000000    -0.0102896  
C170     C      0.292850000000     0.806080000000     0.010020000000    -0.0123054  
C171     C      0.369130000000     0.844830000000     0.976780000000    -0.0111465  
C172     C      0.309890000000     0.846380000000     0.029110000000    -0.0124903  
C173     C      0.182890000000     0.690230000000     0.024120000000    -0.0124082  
C174     C      0.180950000000     0.639300000000     0.963650000000    -0.0116276  
C175     C      0.143500000000     0.670430000000     0.041870000000    -0.00911251 
C176     C      0.142360000000     0.618420000000     0.983020000000    -0.0086247  
C177     C      0.519020000000     0.683610000000     0.034910000000    -0.0130735  
C178     C      0.517910000000     0.676360000000     0.956590000000    -0.01192    
C179     C      0.480460000000     0.655570000000     0.038180000000    -0.0130353  
C180     C      0.479980000000     0.647620000000     0.960040000000    -0.0121714  
C181     C      0.708750000000     0.861990000000     0.966580000000    -0.0108004  
C182     C      0.666680000000     0.861530000000     0.033120000000    -0.00883402 
C183     C      0.682170000000     0.825470000000     0.949810000000    -0.0121933  
C184     C      0.639510000000     0.826690000000     0.016150000000    -0.0117588  
C185     C      0.853500000000     0.728500000000     0.005570000000    -0.0137395  
C186     C      0.853300000000     0.677960000000     0.945550000000    -0.00861453 
C187     C      0.817220000000     0.704560000000     0.026010000000    -0.0120462  
C188     C      0.816920000000     0.654360000000     0.964880000000    -0.0115481  
C189     C      0.321590000000     0.513700000000     0.052440000000    -0.0125143  
C190     C      0.324590000000     0.506410000000     0.973990000000    -0.0109088  
C191     C      0.348950000000     0.474610000000     0.056920000000    -0.0123128  
C192     C      0.353930000000     0.469390000000     0.978870000000    -0.0108135  
C193     C      0.181300000000     0.317540000000     0.066390000000    -0.0111163  
C194     C      0.184730000000     0.373290000000     0.011080000000    -0.0136712  
C195     C      0.142750000000     0.298970000000     0.045290000000    -0.0100785  
C196     C      0.143100000000     0.358400000000     0.993080000000    -0.00885046 
C197     C      0.346160000000     0.174280000000     0.055620000000    -0.0118667  
C198     C      0.293750000000     0.175390000000     0.996940000000    -0.00835676 
C199     C      0.373130000000     0.143280000000     0.030760000000    -0.011713   
C200     C      0.319550000000     0.143210000000     0.973110000000    -0.00954499 
C201     C      0.684240000000     0.526640000000     0.964660000000    -0.0109409  
C202     C      0.681430000000     0.530360000000     0.042950000000    -0.0121057  
C203     C      0.656670000000     0.487820000000     0.965110000000    -0.0113216  
C204     C      0.654450000000     0.490870000000     0.043850000000    -0.0125061  
C205     C      0.509560000000     0.345790000000     0.051130000000    -0.0113256  
C206     C      0.507200000000     0.345570000000     0.972500000000    -0.0114086  
C207     C      0.479980000000     0.308680000000     0.052020000000    -0.0108643  
C208     C      0.475410000000     0.309770000000     0.973760000000    -0.0111745  
C209     C      0.846740000000     0.365740000000     0.028220000000    -0.0101903  
C210     C      0.848950000000     0.308710000000     0.973720000000    -0.0117718  
C211     C      0.806340000000     0.348010000000     0.045100000000    -0.010486   
C212     C      0.803190000000     0.298060000000     0.984160000000    -0.0098152  
C213     C      0.608580000000     0.152680000000     0.999130000000    -0.00826531 
C214     C      0.663000000000     0.150970000000     0.055510000000    -0.00938625 
C215     C      0.629060000000     0.191430000000     0.980060000000    -0.0104986  
C216     C      0.681540000000     0.191840000000     0.039490000000    -0.0121722  
Cu1      Cu     0.657040000000     0.338440000000     0.970860000000     0.836241   
Cu2      Cu     0.658370000000     0.341310000000     0.047980000000     0.846354   
Cu3      Cu     0.332760000000     0.324210000000     0.062370000000     0.839594   
Cu4      Cu     0.325890000000     0.323370000000     0.985510000000     0.841848   
Cu5      Cu     0.668060000000     0.680410000000     0.032810000000     0.836786   
Cu6      Cu     0.668360000000     0.674390000000     0.955840000000     0.83945    
Cu7      Cu     0.331130000000     0.654830000000     0.959800000000     0.840963   
Cu8      Cu     0.329730000000     0.662880000000     0.036730000000     0.837622   
Cu9      Cu     0.681650000000     0.963340000000     0.669550000000     0.835545   
Cu10     Cu     0.686260000000     0.039940000000     0.665090000000     0.847052   
Cu11     Cu     0.349020000000     0.055790000000     0.669130000000     0.840215   
Cu12     Cu     0.347320000000     0.979260000000     0.676180000000     0.840813   
Cu13     Cu     0.324730000000     0.954250000000     0.342720000000     0.84359    
Cu14     Cu     0.317390000000     0.030710000000     0.336260000000     0.84037    
Cu15     Cu     0.657040000000     0.035840000000     0.338170000000     0.841577   
Cu16     Cu     0.652250000000     0.959270000000     0.333920000000     0.844556   
Cu17     Cu     0.982750000000     0.684080000000     0.661960000000     0.851015   
Cu18     Cu     0.059020000000     0.691810000000     0.657450000000     0.835908   
Cu19     Cu     0.979840000000     0.361000000000     0.687640000000     0.851328   
Cu20     Cu     0.056500000000     0.353920000000     0.686120000000     0.837937   
Cu21     Cu     0.045780000000     0.659680000000     0.326550000000     0.839972   
Cu22     Cu     0.969210000000     0.652700000000     0.330190000000     0.846948   
Cu23     Cu     0.967000000000     0.325000000000     0.352230000000     0.852751   
Cu24     Cu     0.043270000000     0.316500000000     0.351100000000     0.832081   
Cu25     Cu     0.994060000000     0.369360000000     0.020460000000     0.847061   
Cu26     Cu     0.995980000000     0.292800000000     0.012600000000     0.838543   
Cu27     Cu     0.006250000000     0.712250000000     0.998080000000     0.843676   
Cu28     Cu     0.990550000000     0.637210000000     0.989010000000     0.842188   
Cu29     Cu     0.988270000000     0.992720000000     0.280620000000     0.839367   
Cu30     Cu     0.985770000000     0.985270000000     0.356860000000     0.836704   
Cu31     Cu     0.010140000000     0.025320000000     0.647860000000     0.848773   
Cu32     Cu     0.014230000000     0.019250000000     0.724810000000     0.837657   
Cu33     Cu     0.624950000000     0.000320000000     0.003260000000     0.845342   
Cu34     Cu     0.700400000000     0.015040000000     0.001040000000     0.836313   
Cu35     Cu     0.303710000000     0.996370000000     0.002690000000     0.839409   
Cu36     Cu     0.380450000000     0.992230000000     0.002340000000     0.833493   
H1       H      0.933510000000     0.163690000000     0.351770000000     0.0409154  
H2       H      0.996880000000     0.159320000000     0.407190000000     0.039502   
H3       H      0.043360000000     0.107480000000     0.380090000000     0.040982   
H4       H      0.940670000000     0.199230000000     0.308450000000     0.0407155  
H5       H      0.948650000000     0.124930000000     0.286880000000     0.0399903  
H6       H      0.995920000000     0.154530000000     0.279190000000     0.0416687  
H7       H      0.043670000000     0.186530000000     0.393450000000     0.0412655  
H8       H      0.057700000000     0.139720000000     0.336640000000     0.03871    
H9       H      0.978940000000     0.260760000000     0.174050000000     0.0418291  
H10      H      0.931270000000     0.330040000000     0.175270000000     0.0391171  
H11      H      0.960560000000     0.375840000000     0.227120000000     0.040467   
H12      H      0.025000000000     0.263100000000     0.141620000000     0.039613   
H13      H      0.040950000000     0.269280000000     0.218500000000     0.0385326  
H14      H      0.057060000000     0.314470000000     0.188850000000     0.0417185  
H15      H      0.951020000000     0.374590000000     0.147760000000     0.0403139  
H16      H      0.007110000000     0.383010000000     0.197030000000     0.0396115  
H17      H      0.971450000000     0.478460000000     0.306690000000     0.0406528  
H18      H      0.056590000000     0.470120000000     0.298290000000     0.0394817  
H19      H      0.083480000000     0.528230000000     0.336900000000     0.0424692  
H20      H      0.948700000000     0.453520000000     0.351540000000     0.0434293  
H21      H      0.951620000000     0.528070000000     0.362490000000     0.0432135  
H22      H      0.985390000000     0.501790000000     0.398640000000     0.0400894  
H23      H      0.082400000000     0.448010000000     0.342840000000     0.0425336  
H24      H      0.066700000000     0.506970000000     0.386090000000     0.0388356  
H25      H      0.049030000000     0.819240000000     0.318830000000     0.0418698  
H26      H      0.984750000000     0.811230000000     0.376330000000     0.0399397  
H27      H      0.931680000000     0.859110000000     0.353880000000     0.0412082  
H28      H      0.043160000000     0.787760000000     0.272360000000     0.0381993  
H29      H      0.027220000000     0.863260000000     0.259690000000     0.041278   
H30      H      0.983120000000     0.829730000000     0.249620000000     0.0416101  
H31      H      0.941700000000     0.780150000000     0.359220000000     0.041363   
H32      H      0.922470000000     0.830090000000     0.306800000000     0.0386935  
H33      H      0.930820000000     0.657990000000     0.148550000000     0.0382037  
H34      H      0.995030000000     0.715690000000     0.159990000000     0.0429271  
H35      H      0.056360000000     0.686650000000     0.197320000000     0.0406838  
H36      H      0.945520000000     0.613240000000     0.118690000000     0.0409434  
H37      H      0.947840000000     0.608470000000     0.200830000000     0.041225   
H38      H      0.990850000000     0.588480000000     0.171550000000     0.0383709  
H39      H      0.039260000000     0.708120000000     0.125860000000     0.0400774  
H40      H      0.056640000000     0.642170000000     0.162580000000     0.0415667  
H41      H      0.056700000000     0.376910000000     0.520990000000     0.0404302  
H42      H      0.972720000000     0.383650000000     0.523740000000     0.0400983  
H43      H      0.941700000000     0.326490000000     0.484400000000     0.0426238  
H44      H      0.079800000000     0.338470000000     0.554650000000     0.0431117  
H45      H      0.075580000000     0.315450000000     0.480250000000     0.043281   
H46      H      0.047700000000     0.281940000000     0.515440000000     0.0390785  
H47      H      0.946000000000     0.349210000000     0.558980000000     0.0430154  
H48      H      0.965800000000     0.288460000000     0.517910000000     0.0392638  
H49      H      0.947980000000     0.351790000000     0.854850000000     0.0401971  
H50      H      0.011030000000     0.294090000000     0.849210000000     0.0415749  
H51      H      0.073290000000     0.324530000000     0.815800000000     0.0403967  
H52      H      0.956330000000     0.393310000000     0.891470000000     0.0409126  
H53      H      0.970760000000     0.411000000000     0.814530000000     0.0402159  
H54      H      0.012510000000     0.421390000000     0.850400000000     0.0384975  
H55      H      0.052420000000     0.300220000000     0.887060000000     0.0393164  
H56      H      0.074140000000     0.366210000000     0.853910000000     0.0404535  
H57      H      0.007710000000     0.181310000000     0.636930000000     0.0427259  
H58      H      0.074020000000     0.172930000000     0.694860000000     0.0390991  
H59      H      0.062510000000     0.230140000000     0.740870000000     0.0400306  
H60      H      0.961380000000     0.153220000000     0.652020000000     0.038733   
H61      H      0.953700000000     0.229620000000     0.662850000000     0.0398592  
H62      H      0.950290000000     0.201030000000     0.711550000000     0.0417835  
H63      H      0.058760000000     0.149160000000     0.743110000000     0.041138   
H64      H      0.016710000000     0.206860000000     0.762620000000     0.0376134  
H65      H      0.048530000000     0.737350000000     0.491610000000     0.0384469  
H66      H      0.968570000000     0.731670000000     0.496000000000     0.0385945  
H67      H      0.944570000000     0.668780000000     0.460570000000     0.0428964  
H68      H      0.079870000000     0.707000000000     0.526820000000     0.0429011  
H69      H      0.078620000000     0.677890000000     0.454630000000     0.0434045  
H70      H      0.057750000000     0.642220000000     0.492570000000     0.041144   
H71      H      0.945930000000     0.696650000000     0.533620000000     0.0427067  
H72      H      0.973240000000     0.636160000000     0.496040000000     0.0404794  
H73      H      0.070260000000     0.518260000000     0.709500000000     0.0396164  
H74      H      0.984940000000     0.524950000000     0.701840000000     0.0413838  
H75      H      0.964280000000     0.557290000000     0.634110000000     0.0429352  
H76      H      0.094710000000     0.483520000000     0.673060000000     0.0430459  
H77      H      0.097240000000     0.561080000000     0.653810000000     0.0425982  
H78      H      0.076720000000     0.526890000000     0.614290000000     0.0384523  
H79      H      0.960610000000     0.488660000000     0.666580000000     0.0433088  
H80      H      0.996870000000     0.520960000000     0.606650000000     0.03953    
H81      H      0.019240000000     0.861830000000     0.734390000000     0.041657   
H82      H      0.073470000000     0.872060000000     0.667760000000     0.0390807  
H83      H      0.054400000000     0.819640000000     0.617830000000     0.0411514  
H84      H      0.970060000000     0.888510000000     0.728740000000     0.0394259  
H85      H      0.964360000000     0.811390000000     0.716800000000     0.0394849  
H86      H      0.949420000000     0.841720000000     0.671510000000     0.0416542  
H87      H      0.052360000000     0.899140000000     0.623570000000     0.0414451  
H88      H      0.004930000000     0.843640000000     0.608220000000     0.0389448  
H89      H      0.082100000000     0.674970000000     0.823390000000     0.0403746  
H90      H      0.023110000000     0.616870000000     0.818080000000     0.0401498  
H91      H      0.962680000000     0.636820000000     0.859690000000     0.0410227  
H92      H      0.074580000000     0.721540000000     0.792550000000     0.0406697  
H93      H      0.058010000000     0.730530000000     0.869910000000     0.0402677  
H94      H      0.015100000000     0.742530000000     0.835500000000     0.040905   
H95      H      0.980020000000     0.626900000000     0.783750000000     0.0416089  
H96      H      0.955580000000     0.683090000000     0.829010000000     0.0401522  
H97      H      0.813890000000     0.933370000000     0.329870000000     0.0412961  
H98      H      0.816050000000     0.993520000000     0.389990000000     0.0399379  
H99      H      0.864440000000     0.046080000000     0.366380000000     0.0407451  
H100     H      0.779390000000     0.943370000000     0.286360000000     0.0404085  
H101     H      0.854730000000     0.954810000000     0.268360000000     0.0400084  
H102     H      0.823510000000     0.001360000000     0.262510000000     0.0407691  
H103     H      0.786400000000     0.039750000000     0.379630000000     0.0409839  
H104     H      0.831800000000     0.059230000000     0.322780000000     0.0389753  
H105     H      0.658230000000     0.060650000000     0.175600000000     0.0412328  
H106     H      0.597260000000     0.001660000000     0.175810000000     0.0404369  
H107     H      0.618190000000     0.948530000000     0.126650000000     0.0394394  
H108     H      0.702330000000     0.050150000000     0.209110000000     0.0400873  
H109     H      0.717990000000     0.037730000000     0.133240000000     0.039685   
H110     H      0.723470000000     0.991170000000     0.164680000000     0.0408487  
H111     H      0.607680000000     0.955390000000     0.205520000000     0.0411499  
H112     H      0.662300000000     0.934600000000     0.158140000000     0.0383336  
H113     H      0.484450000000     0.971270000000     0.398110000000     0.0401138  
H114     H      0.477280000000     0.052120000000     0.388520000000     0.0387488  
H115     H      0.525700000000     0.070360000000     0.334000000000     0.0428716  
H116     H      0.452270000000     0.937810000000     0.366740000000     0.0433028  
H117     H      0.523910000000     0.936050000000     0.342000000000     0.0435726  
H118     H      0.490900000000     0.959360000000     0.303090000000     0.0407522  
H119     H      0.446750000000     0.070630000000     0.345250000000     0.0427098  
H120     H      0.495680000000     0.043810000000     0.294870000000     0.0396213  
H121     H      0.167740000000     0.920950000000     0.311040000000     0.040605   
H122     H      0.173100000000     0.986620000000     0.259820000000     0.0378066  
H123     H      0.117080000000     0.032850000000     0.277370000000     0.0419268  
H124     H      0.192290000000     0.926280000000     0.361660000000     0.0402836  
H125     H      0.114390000000     0.931590000000     0.364970000000     0.04004    
H126     H      0.140320000000     0.977970000000     0.383470000000     0.0423645  
H127     H      0.196370000000     0.033050000000     0.280490000000     0.0402537  
H128     H      0.139070000000     0.044360000000     0.327550000000     0.0394104  
H129     H      0.272930000000     0.986000000000     0.180210000000     0.0389356  
H130     H      0.333050000000     0.927120000000     0.181350000000     0.0408945  
H131     H      0.389800000000     0.947630000000     0.134360000000     0.039941   
H132     H      0.283300000000     0.033080000000     0.208560000000     0.0403009  
H133     H      0.292180000000     0.039080000000     0.130160000000     0.0413176  
H134     H      0.337430000000     0.052940000000     0.159900000000     0.0395732  
H135     H      0.378430000000     0.939120000000     0.212460000000     0.0385554  
H136     H      0.398970000000     0.994670000000     0.163930000000     0.0415815  
H137     H      0.273770000000     0.964060000000     0.507780000000     0.0390666  
H138     H      0.275250000000     0.045110000000     0.502270000000     0.0392544  
H139     H      0.336520000000     0.073770000000     0.537320000000     0.043117   
H140     H      0.307710000000     0.934440000000     0.474500000000     0.042891   
H141     H      0.333010000000     0.939800000000     0.548520000000     0.0431868  
H142     H      0.369060000000     0.960650000000     0.511060000000     0.0404749  
H143     H      0.309450000000     0.068650000000     0.464500000000     0.0430299  
H144     H      0.370810000000     0.045100000000     0.503440000000     0.0409379  
H145     H      0.289010000000     0.998020000000     0.836270000000     0.041445   
H146     H      0.357930000000     0.949180000000     0.835570000000     0.0414643  
H147     H      0.411820000000     0.985960000000     0.797350000000     0.0384546  
H148     H      0.288030000000     0.038630000000     0.875430000000     0.0395413  
H149     H      0.304340000000     0.065430000000     0.802770000000     0.0376761  
H150     H      0.345240000000     0.075680000000     0.840350000000     0.0408005  
H151     H      0.398200000000     0.962360000000     0.872190000000     0.0406345  
H152     H      0.412650000000     0.027020000000     0.835700000000     0.0405063  
H153     H      0.191720000000     0.081130000000     0.685600000000     0.0412506  
H154     H      0.198050000000     0.018910000000     0.744110000000     0.0381344  
H155     H      0.141140000000     0.973160000000     0.729480000000     0.0418934  
H156     H      0.217780000000     0.071030000000     0.636550000000     0.0407148  
H157     H      0.140810000000     0.063860000000     0.630720000000     0.0403961  
H158     H      0.167620000000     0.015630000000     0.619460000000     0.0416654  
H159     H      0.221080000000     0.971340000000     0.726140000000     0.0415617  
H160     H      0.163610000000     0.956540000000     0.681000000000     0.0383567  
H161     H      0.628100000000     0.948290000000     0.502710000000     0.0395168  
H162     H      0.624770000000     0.031000000000     0.506370000000     0.040859   
H163     H      0.689560000000     0.062240000000     0.534730000000     0.0430245  
H164     H      0.663060000000     0.925640000000     0.465180000000     0.0428264  
H165     H      0.690880000000     0.927540000000     0.539570000000     0.043016   
H166     H      0.723410000000     0.953000000000     0.501650000000     0.0391428  
H167     H      0.652830000000     0.060040000000     0.467480000000     0.043539   
H168     H      0.719720000000     0.034440000000     0.496460000000     0.0394338  
H169     H      0.505030000000     0.968220000000     0.706830000000     0.0395839  
H170     H      0.508050000000     0.053590000000     0.707860000000     0.0401778  
H171     H      0.558250000000     0.076030000000     0.655770000000     0.0430371  
H172     H      0.475190000000     0.945260000000     0.665240000000     0.0431635  
H173     H      0.551380000000     0.941710000000     0.652620000000     0.042928   
H174     H      0.524030000000     0.970290000000     0.612810000000     0.0394969  
H175     H      0.480990000000     0.079430000000     0.666060000000     0.0431069  
H176     H      0.528900000000     0.052330000000     0.614270000000     0.0390269  
H177     H      0.845440000000     0.072830000000     0.677730000000     0.0411224  
H178     H      0.846530000000     0.023010000000     0.744800000000     0.0408112  
H179     H      0.811300000000     0.957610000000     0.726930000000     0.0384565  
H180     H      0.883420000000     0.063080000000     0.637610000000     0.0401279  
H181     H      0.811590000000     0.037650000000     0.618980000000     0.0401416  
H182     H      0.849940000000     0.996840000000     0.620220000000     0.0417497  
H183     H      0.884890000000     0.981810000000     0.744830000000     0.0399605  
H184     H      0.849560000000     0.946260000000     0.687020000000     0.0409112  
H185     H      0.730110000000     0.019470000000     0.827510000000     0.0397031  
H186     H      0.673980000000     0.953510000000     0.830030000000     0.0416533  
H187     H      0.611550000000     0.972430000000     0.870510000000     0.04124    
H188     H      0.713690000000     0.063270000000     0.796960000000     0.0420714  
H189     H      0.703350000000     0.069930000000     0.876200000000     0.0418382  
H190     H      0.658220000000     0.079250000000     0.844560000000     0.0384764  
H191     H      0.629660000000     0.959250000000     0.795800000000     0.0407505  
H192     H      0.603150000000     0.017710000000     0.837920000000     0.0408547  
H193     H      0.267410000000     0.814640000000     0.988000000000     0.0398919  
H194     H      0.327760000000     0.818380000000     0.930310000000     0.041402   
H195     H      0.384910000000     0.864310000000     0.952670000000     0.0398871  
H196     H      0.278820000000     0.786450000000     0.035070000000     0.0394412  
H197     H      0.283480000000     0.866130000000     0.039860000000     0.0415414  
H198     H      0.328370000000     0.837960000000     0.057320000000     0.0399799  
H199     H      0.373780000000     0.787540000000     0.940660000000     0.0383052  
H200     H      0.393130000000     0.833550000000     0.999200000000     0.0430665  
H201     H      0.170440000000     0.662420000000     0.939940000000     0.0420661  
H202     H      0.173570000000     0.718010000000     0.005500000000     0.0403966  
H203     H      0.124530000000     0.694540000000     0.058160000000     0.038685   
H204     H      0.200010000000     0.615200000000     0.947470000000     0.0401767  
H205     H      0.122340000000     0.605610000000     0.957650000000     0.0388976  
H206     H      0.152860000000     0.592240000000     0.003290000000     0.0395025  
H207     H      0.202770000000     0.701480000000     0.050320000000     0.0410033  
H208     H      0.153040000000     0.646950000000     0.065640000000     0.0388033  
H209     H      0.506690000000     0.708670000000     0.950790000000     0.0401615  
H210     H      0.508420000000     0.716630000000     0.035090000000     0.0391369  
H211     H      0.461560000000     0.665750000000     0.065490000000     0.0428352  
H212     H      0.536700000000     0.666610000000     0.929050000000     0.0427259  
H213     H      0.460710000000     0.651470000000     0.931400000000     0.0433628  
H214     H      0.491220000000     0.614810000000     0.960740000000     0.040188   
H215     H      0.538510000000     0.678820000000     0.063260000000     0.0432563  
H216     H      0.491100000000     0.623130000000     0.044340000000     0.0396937  
H217     H      0.692260000000     0.847220000000     0.051700000000     0.0400775  
H218     H      0.737210000000     0.848890000000     0.981460000000     0.0407269  
H219     H      0.702080000000     0.804910000000     0.930150000000     0.0412233  
H220     H      0.648150000000     0.881680000000     0.054570000000     0.0380483  
H221     H      0.627840000000     0.807280000000     0.042520000000     0.0419847  
H222     H      0.611990000000     0.841040000000     0.000650000000     0.042274   
H223     H      0.718350000000     0.882510000000     0.940180000000     0.0367522  
H224     H      0.657100000000     0.838540000000     0.929690000000     0.0407636  
H225     H      0.840410000000     0.701300000000     0.923280000000     0.0389874  
H226     H      0.840360000000     0.754300000000     0.986400000000     0.0416884  
H227     H      0.797070000000     0.727010000000     0.043200000000     0.0405464  
H228     H      0.873260000000     0.656090000000     0.927360000000     0.0385218  
H229     H      0.797010000000     0.641410000000     0.939530000000     0.0420341  
H230     H      0.829730000000     0.627510000000     0.982790000000     0.0424641  
H231     H      0.873680000000     0.742140000000     0.030380000000     0.0393639  
H232     H      0.830290000000     0.682060000000     0.049030000000     0.0412945  
H233     H      0.292210000000     0.494410000000     0.971130000000     0.0403765  
H234     H      0.288470000000     0.504030000000     0.055570000000     0.0396255  
H235     H      0.339710000000     0.457570000000     0.085760000000     0.0427536  
H236     H      0.332420000000     0.522890000000     0.944400000000     0.0431191  
H237     H      0.350190000000     0.448470000000     0.951390000000     0.0432423  
H238     H      0.386490000000     0.481270000000     0.978590000000     0.0397915  
H239     H      0.328670000000     0.535270000000     0.078740000000     0.0432596  
H240     H      0.381820000000     0.484870000000     0.060830000000     0.0390015  
H241     H      0.178200000000     0.399620000000     0.032780000000     0.0393559  
H242     H      0.171070000000     0.339650000000     0.091180000000     0.0417745  
H243     H      0.122820000000     0.283910000000     0.069480000000     0.0382657  
H244     H      0.204640000000     0.385670000000     0.985400000000     0.0418828  
H245     H      0.124430000000     0.385880000000     0.983030000000     0.0409039  
H246     H      0.149740000000     0.339700000000     0.964520000000     0.0388549  
H247     H      0.199610000000     0.292050000000     0.081260000000     0.0396183  
H248     H      0.152830000000     0.274630000000     0.022620000000     0.0422248  
H249     H      0.269550000000     0.158370000000     0.015070000000     0.0393216  
H250     H      0.325570000000     0.156290000000     0.077030000000     0.0402586  
H251     H      0.390020000000     0.122490000000     0.052910000000     0.0394153  
H252     H      0.277420000000     0.196180000000     0.974400000000     0.0410897  
H253     H      0.298600000000     0.122570000000     0.954620000000     0.039848   
H254     H      0.339740000000     0.160260000000     0.950590000000     0.0404376  
H255     H      0.366820000000     0.194450000000     0.074900000000     0.0414864  
H256     H      0.396400000000     0.161190000000     0.012270000000     0.0413543  
H257     H      0.714520000000     0.520980000000     0.047170000000     0.0391146  
H258     H      0.717320000000     0.516350000000     0.964170000000     0.0392777  
H259     H      0.665360000000     0.467800000000     0.938070000000     0.0430712  
H260     H      0.672630000000     0.550510000000     0.069850000000     0.0426138  
H261     H      0.662070000000     0.473010000000     0.072690000000     0.0430468  
H262     H      0.621240000000     0.500490000000     0.046000000000     0.0402091  
H263     H      0.678330000000     0.544120000000     0.935200000000     0.0430192  
H264     H      0.623790000000     0.497790000000     0.960590000000     0.0407946  
H265     H      0.489730000000     0.375470000000     0.970560000000     0.0400045  
H266     H      0.490750000000     0.374850000000     0.053290000000     0.0409287  
H267     H      0.461970000000     0.309010000000     0.081740000000     0.0431612  
H268     H      0.526370000000     0.342660000000     0.943670000000     0.0430255  
H269     H      0.453850000000     0.312730000000     0.946690000000     0.0426848  
H270     H      0.492630000000     0.279860000000     0.970410000000     0.0393934  
H271     H      0.530190000000     0.344530000000     0.079040000000     0.0434648  
H272     H      0.498910000000     0.279610000000     0.051600000000     0.0396424  
H273     H      0.849130000000     0.328000000000     0.944780000000     0.0377038  
H274     H      0.839590000000     0.391080000000     0.005520000000     0.0421905  
H275     H      0.788870000000     0.373490000000     0.060990000000     0.040827   
H276     H      0.866090000000     0.279500000000     0.966210000000     0.0423937  
H277     H      0.785740000000     0.292600000000     0.954570000000     0.0416518  
H278     H      0.802930000000     0.268060000000     0.001630000000     0.0362754  
H279     H      0.864570000000     0.379390000000     0.054810000000     0.0404581  
H280     H      0.813500000000     0.323390000000     0.068580000000     0.0422283  
H281     H      0.640610000000     0.158660000000     0.080930000000     0.0382211  
H282     H      0.583790000000     0.162860000000     0.021220000000     0.0396056  
H283     H      0.604570000000     0.211110000000     0.965270000000     0.039876   
H284     H      0.688000000000     0.131310000000     0.069420000000     0.0392121  
H285     H      0.692020000000     0.210950000000     0.066590000000     0.0416981  
H286     H      0.709700000000     0.184240000000     0.020700000000     0.0402902  
H287     H      0.594100000000     0.133750000000     0.973800000000     0.0392963  
H288     H      0.651180000000     0.181390000000     0.955220000000     0.0427158  
N1       N      0.998150000000     0.112900000000     0.330530000000    -0.166154   
N2       N      0.990760000000     0.196380000000     0.353140000000    -0.166337   
N3       N      0.003530000000     0.324190000000     0.226170000000    -0.166779   
N4       N      0.986010000000     0.317620000000     0.141200000000    -0.165979   
N5       N      0.017940000000     0.532960000000     0.350310000000    -0.166174   
N6       N      0.015400000000     0.445610000000     0.343520000000    -0.165963   
N7       N      0.978080000000     0.864820000000     0.305500000000    -0.165481   
N8       N      0.995600000000     0.780640000000     0.318970000000    -0.165971   
N9       N      0.004310000000     0.644550000000     0.202850000000    -0.165964   
N10      N      0.988860000000     0.664330000000     0.118760000000    -0.165465   
N11      N      0.008280000000     0.319210000000     0.477900000000    -0.165891   
N12      N      0.013360000000     0.347360000000     0.561000000000    -0.165812   
N13      N      0.023240000000     0.369200000000     0.811880000000    -0.167254   
N14      N      0.001670000000     0.343700000000     0.891880000000    -0.167581   
N15      N      0.006940000000     0.233670000000     0.703350000000    -0.166483   
N16      N      0.013680000000     0.147350000000     0.693460000000    -0.166229   
N17      N      0.011700000000     0.669290000000     0.453770000000    -0.166294   
N18      N      0.013060000000     0.702060000000     0.534700000000    -0.16669    
N19      N      0.030840000000     0.563760000000     0.643820000000    -0.166601   
N20      N      0.027460000000     0.482240000000     0.674680000000    -0.166258   
N21      N      0.007900000000     0.811930000000     0.665870000000    -0.167024   
N22      N      0.014040000000     0.897530000000     0.678900000000    -0.167022   
N23      N      0.008290000000     0.685710000000     0.868400000000    -0.166215   
N24      N      0.028790000000     0.673250000000     0.784540000000    -0.16594    
N25      N      0.862910000000     0.001840000000     0.315560000000    -0.1664     
N26      N      0.779500000000     0.989420000000     0.335370000000    -0.166332   
N27      N      0.669610000000     0.991790000000     0.126540000000    -0.166906   
N28      N      0.652850000000     0.004940000000     0.210700000000    -0.166636   
N29      N      0.529260000000     0.003140000000     0.334400000000    -0.165851   
N30      N      0.444890000000     0.004340000000     0.356790000000    -0.166129   
N31      N      0.111590000000     0.984760000000     0.324250000000    -0.166006   
N32      N      0.198200000000     0.978710000000     0.320210000000    -0.166629   
N33      N      0.343300000000     0.995430000000     0.128510000000    -0.165652   
N34      N      0.329200000000     0.984230000000     0.214150000000    -0.165908   
N35      N      0.338800000000     0.007010000000     0.546940000000    -0.165005   
N36      N      0.307530000000     0.001230000000     0.464970000000    -0.16547    
N37      N      0.359290000000     0.027640000000     0.797300000000    -0.166793   
N38      N      0.341240000000     0.997770000000     0.876730000000    -0.165904   
N39      N      0.136900000000     0.016430000000     0.678030000000    -0.166244   
N40      N      0.223580000000     0.023390000000     0.683570000000    -0.166186   
N41      N      0.691770000000     0.994960000000     0.541560000000    -0.166181   
N42      N      0.655430000000     0.992550000000     0.462120000000    -0.165984   
N43      N      0.559430000000     0.008660000000     0.653140000000    -0.165814   
N44      N      0.473530000000     0.012580000000     0.669440000000    -0.165653   
N45      N      0.808630000000     0.995540000000     0.671580000000    -0.166605   
N46      N      0.887220000000     0.024300000000     0.692710000000    -0.166386   
N47      N      0.656050000000     0.022210000000     0.877150000000    -0.165915   
N48      N      0.675390000000     0.008200000000     0.792910000000    -0.165707   
N49      N      0.337390000000     0.868830000000     0.999850000000    -0.163716   
N50      N      0.325140000000     0.783570000000     0.986400000000    -0.165561   
N51      N      0.120030000000     0.649110000000     0.008670000000    -0.167085   
N52      N      0.205060000000     0.661040000000     0.996300000000    -0.165163   
N53      N      0.456470000000     0.656000000000     0.998860000000    -0.164315   
N54      N      0.542210000000     0.675890000000     0.995710000000    -0.164291   
N55      N      0.662900000000     0.802460000000     0.984870000000    -0.165422   
N56      N      0.684890000000     0.885100000000     0.998180000000    -0.166366   
N57      N      0.793570000000     0.681300000000     0.993990000000    -0.165279   
N58      N      0.876760000000     0.700010000000     0.978250000000    -0.165919   
N59      N      0.346040000000     0.448420000000     0.019140000000    -0.166012   
N60      N      0.327220000000     0.533620000000     0.011100000000    -0.165856   
N61      N      0.120010000000     0.331870000000     0.022750000000    -0.166603   
N62      N      0.205710000000     0.340100000000     0.034880000000    -0.165628   
N63      N      0.346360000000     0.119570000000     0.002030000000    -0.166469   
N64      N      0.320190000000     0.198660000000     0.026450000000    -0.166371   
N65      N      0.660060000000     0.465770000000     0.005470000000    -0.165327   
N66      N      0.677200000000     0.552000000000     0.002510000000    -0.165575   
N67      N      0.453540000000     0.309930000000     0.014340000000    -0.16705    
N68      N      0.532470000000     0.345670000000     0.011140000000    -0.16679    
N69      N      0.782560000000     0.329750000000     0.010430000000    -0.166467   
N70      N      0.870120000000     0.332580000000     0.006950000000    -0.166312   
N71      N      0.652110000000     0.214670000000     0.012470000000    -0.166146   
N72      N      0.640340000000     0.129170000000     0.022050000000    -0.167357   
O1       O      0.720300000000     0.330840000000     0.974810000000    -0.392459   
O2       O      0.594290000000     0.344740000000     0.975020000000    -0.396109   
O3       O      0.662910000000     0.401760000000     0.972940000000    -0.394613   
O4       O      0.649780000000     0.275990000000     0.976320000000    -0.39693    
O5       O      0.658840000000     0.277710000000     0.045590000000    -0.39636    
O6       O      0.658420000000     0.404380000000     0.042500000000    -0.397054   
O7       O      0.595380000000     0.341660000000     0.044710000000    -0.401144   
O8       O      0.720980000000     0.341300000000     0.043870000000    -0.40165    
O9       O      0.394760000000     0.319970000000     0.053380000000    -0.401215   
O10      O      0.269470000000     0.327290000000     0.063940000000    -0.397238   
O11      O      0.329990000000     0.261010000000     0.059860000000    -0.396451   
O12      O      0.336600000000     0.387720000000     0.056740000000    -0.394094   
O13      O      0.336680000000     0.385340000000     0.987020000000    -0.399208   
O14      O      0.315690000000     0.260900000000     0.991500000000    -0.395583   
O15      O      0.264340000000     0.335080000000     0.994670000000    -0.395396   
O16      O      0.388570000000     0.313300000000     0.984200000000    -0.395731   
O17      O      0.731180000000     0.685930000000     0.028560000000    -0.396898   
O18      O      0.605130000000     0.675710000000     0.029860000000    -0.398022   
O19      O      0.673160000000     0.616810000000     0.033510000000    -0.394143   
O20      O      0.662470000000     0.742770000000     0.024030000000    -0.39895    
O21      O      0.669230000000     0.737920000000     0.954680000000    -0.396674   
O22      O      0.668940000000     0.611790000000     0.964060000000    -0.397426   
O23      O      0.604730000000     0.674750000000     0.960120000000    -0.39412    
O24      O      0.731440000000     0.673910000000     0.959750000000    -0.397313   
O25      O      0.267720000000     0.654540000000     0.962710000000    -0.39664    
O26      O      0.394050000000     0.654760000000     0.963980000000    -0.398616   
O27      O      0.330540000000     0.592380000000     0.970150000000    -0.39668    
O28      O      0.331980000000     0.718590000000     0.957400000000    -0.394625   
O29      O      0.328170000000     0.725220000000     0.026920000000    -0.399344   
O30      O      0.329380000000     0.599450000000     0.039530000000    -0.396825   
O31      O      0.393530000000     0.662210000000     0.033320000000    -0.394495   
O32      O      0.266710000000     0.663520000000     0.032020000000    -0.397791   
O33      O      0.619400000000     0.970450000000     0.660950000000    -0.397254   
O34      O      0.744810000000     0.964300000000     0.678040000000    -0.393822   
O35      O      0.673270000000     0.970890000000     0.731980000000    -0.397597   
O36      O      0.689500000000     0.963280000000     0.606180000000    -0.395926   
O37      O      0.687240000000     0.032620000000     0.602270000000    -0.400758   
O38      O      0.685610000000     0.039300000000     0.729010000000    -0.396355   
O39      O      0.748670000000     0.032680000000     0.665290000000    -0.401509   
O40      O      0.623020000000     0.039810000000     0.663290000000    -0.398961   
O41      O      0.412230000000     0.049730000000     0.668890000000    -0.396968   
O42      O      0.286120000000     0.054230000000     0.669820000000    -0.399406   
O43      O      0.349230000000     0.057200000000     0.733020000000    -0.395279   
O44      O      0.347410000000     0.046620000000     0.606240000000    -0.396796   
O45      O      0.339710000000     0.977870000000     0.612800000000    -0.396037   
O46      O      0.356590000000     0.988110000000     0.738220000000    -0.398838   
O47      O      0.284640000000     0.986230000000     0.684620000000    -0.396098   
O48      O      0.409840000000     0.980290000000     0.668660000000    -0.398925   
O49      O      0.262060000000     0.951200000000     0.335270000000    -0.39948    
O50      O      0.386200000000     0.964530000000     0.350340000000    -0.402596   
O51      O      0.316280000000     0.962150000000     0.405310000000    -0.396886   
O52      O      0.332930000000     0.954010000000     0.279140000000    -0.394431   
O53      O      0.323490000000     0.022810000000     0.273770000000    -0.399006   
O54      O      0.310760000000     0.031200000000     0.399680000000    -0.397217   
O55      O      0.380560000000     0.033480000000     0.343780000000    -0.395511   
O56      O      0.255550000000     0.020190000000     0.328230000000    -0.397799   
O57      O      0.719750000000     0.027710000000     0.342150000000    -0.39671    
O58      O      0.593360000000     0.035730000000     0.334410000000    -0.394185   
O59      O      0.653370000000     0.029170000000     0.400770000000    -0.402124   
O60      O      0.661110000000     0.035160000000     0.274830000000    -0.399604   
O61      O      0.647690000000     0.966950000000     0.271000000000    -0.398037   
O62      O      0.656170000000     0.959810000000     0.397840000000    -0.395561   
O63      O      0.590130000000     0.966420000000     0.337890000000    -0.402745   
O64      O      0.715270000000     0.959450000000     0.329200000000    -0.399443   
O65      O      0.991060000000     0.673790000000     0.723970000000    -0.399228   
O66      O      0.982270000000     0.694190000000     0.599110000000    -0.398526   
O67      O      0.992010000000     0.622910000000     0.651350000000    -0.403408   
O68      O      0.980820000000     0.746490000000     0.672200000000    -0.399593   
O69      O      0.048770000000     0.754130000000     0.659370000000    -0.397953   
O70      O      0.061170000000     0.628140000000     0.653990000000    -0.394651   
O71      O      0.051550000000     0.694780000000     0.594630000000    -0.398824   
O72      O      0.058790000000     0.689200000000     0.721370000000    -0.395028   
O73      O      0.988860000000     0.422700000000     0.680650000000    -0.40336    
O74      O      0.978060000000     0.298020000000     0.693800000000    -0.399609   
O75      O      0.986230000000     0.368360000000     0.750670000000    -0.398201   
O76      O      0.981050000000     0.354210000000     0.624640000000    -0.399663   
O77      O      0.050160000000     0.348190000000     0.622820000000    -0.396935   
O78      O      0.055220000000     0.359570000000     0.749010000000    -0.400316   
O79      O      0.047340000000     0.291700000000     0.694270000000    -0.396306   
O80      O      0.058050000000     0.417390000000     0.679940000000    -0.394991   
O81      O      0.043970000000     0.666580000000     0.389710000000    -0.399128   
O82      O      0.040080000000     0.652960000000     0.263950000000    -0.400249   
O83      O      0.036030000000     0.721920000000     0.318840000000    -0.39725    
O84      O      0.047960000000     0.596390000000     0.334650000000    -0.394361   
O85      O      0.978830000000     0.591160000000     0.337950000000    -0.402736   
O86      O      0.966960000000     0.715660000000     0.324280000000    -0.399225   
O87      O      0.971090000000     0.644830000000     0.266600000000    -0.394336   
O88      O      0.974910000000     0.660300000000     0.392900000000    -0.39906    
O89      O      0.971980000000     0.321560000000     0.415810000000    -0.396974   
O90      O      0.970170000000     0.328920000000     0.289000000000    -0.398816   
O91      O      0.963890000000     0.262040000000     0.348420000000    -0.401607   
O92      O      0.977140000000     0.386670000000     0.354490000000    -0.404369   
O93      O      0.045750000000     0.380310000000     0.346330000000    -0.392285   
O94      O      0.032510000000     0.254160000000     0.356370000000    -0.395761   
O95      O      0.037690000000     0.312250000000     0.287750000000    -0.396346   
O96      O      0.041350000000     0.320520000000     0.414310000000    -0.398055   
O97      O      0.931660000000     0.365220000000     0.020010000000    -0.402669   
O98      O      0.057550000000     0.366090000000     0.019690000000    -0.397469   
O99      O      0.993620000000     0.371870000000     0.956980000000    -0.398377   
O100     O      0.992200000000     0.358900000000     0.083190000000    -0.397485   
O101     O      0.989510000000     0.289670000000     0.075610000000    -0.39823    
O102     O      0.004220000000     0.303330000000     0.950570000000    -0.399134   
O103     O      0.058380000000     0.296460000000     0.021430000000    -0.397372   
O104     O      0.932630000000     0.297370000000     0.004410000000    -0.392796   
O105     O      0.943360000000     0.721310000000     0.992540000000    -0.394121   
O106     O      0.066610000000     0.695690000000     0.004960000000    -0.39949    
O107     O      0.013270000000     0.713740000000     0.934370000000    -0.395047   
O108     O      0.999640000000     0.703190000000     0.060100000000    -0.4011     
O109     O      0.983520000000     0.635830000000     0.052890000000    -0.394338   
O110     O      0.997220000000     0.646400000000     0.926840000000    -0.398647   
O111     O      0.053340000000     0.628070000000     0.994550000000    -0.394626   
O112     O      0.930250000000     0.653650000000     0.982110000000    -0.39962    
O113     O      0.051180000000     0.994940000000     0.287620000000    -0.396613   
O114     O      0.924930000000     0.990250000000     0.282330000000    -0.395303   
O115     O      0.985730000000     0.055100000000     0.290760000000    -0.397562   
O116     O      0.990700000000     0.929540000000     0.278420000000    -0.397023   
O117     O      0.974030000000     0.923720000000     0.345960000000    -0.394453   
O118     O      0.998090000000     0.047480000000     0.359090000000    -0.395048   
O119     O      0.924100000000     0.998190000000     0.351730000000    -0.397221   
O120     O      0.047860000000     0.973990000000     0.354140000000    -0.397293   
O121     O      0.947500000000     0.023580000000     0.654980000000    -0.399761   
O122     O      0.073230000000     0.028050000000     0.648350000000    -0.399414   
O123     O      0.013850000000     0.961850000000     0.647880000000    -0.398603   
O124     O      0.006980000000     0.087590000000     0.655640000000    -0.401246   
O125     O      0.019190000000     0.082970000000     0.724320000000    -0.394371   
O126     O      0.009060000000     0.957010000000     0.717460000000    -0.399728   
O127     O      0.076910000000     0.014140000000     0.716720000000    -0.396391   
O128     O      0.950900000000     0.022360000000     0.724840000000    -0.395086   
O129     O      0.617390000000     0.063410000000     0.006840000000    -0.39727    
O130     O      0.639910000000     0.939480000000     0.000790000000    -0.403344   
O131     O      0.631550000000     0.995930000000     0.066270000000    -0.398255   
O132     O      0.626420000000     0.004090000000     0.939740000000    -0.39747    
O133     O      0.692490000000     0.025620000000     0.938700000000    -0.395663   
O134     O      0.700540000000     0.004880000000     0.063620000000    -0.398035   
O135     O      0.707470000000     0.952350000000     0.990080000000    -0.3917     
O136     O      0.685640000000     0.075120000000     0.013640000000    -0.397534   
O137     O      0.309720000000     0.058910000000     0.998990000000    -0.397017   
O138     O      0.305410000000     0.932600000000     0.005770000000    -0.393986   
O139     O      0.308530000000     0.999620000000     0.066120000000    -0.396915   
O140     O      0.306710000000     0.995180000000     0.939240000000    -0.396082   
O141     O      0.376300000000     0.995810000000     0.938960000000    -0.395726   
O142     O      0.376940000000     0.987320000000     0.065820000000    -0.395192   
O143     O      0.374310000000     0.929630000000     0.996910000000    -0.394624   
O144     O      0.378700000000     0.055990000000     0.007510000000    -0.392667   


