data_structure

_audit_creation_method RASPA-1.0
_audit_creation_date 2023-5-22
_audit_author_name 'Poobodin Mano'

_cell_length_a    42.9587
_cell_length_b    42.8739
_cell_length_c    32.2268
_cell_angle_alpha 90
_cell_angle_beta  90
_cell_angle_gamma 120.001
_cell_volume      51402.9

_symmetry_cell_setting          triclinic
_symmetry_space_group_name_Hall 'P 1'
_symmetry_space_group_name_H-M  'P 1'
_symmetry_Int_Tables_number     1

_symmetry_equiv_pos_as_xyz 'x,y,z'

loop_
_atom_site_label
_atom_site_type_symbol
_atom_site_fract_x
_atom_site_fract_y
_atom_site_fract_z
_atom_site_charge
C1       C      0.499340000000     0.489510000000     0.262260000000     0.400731   
C2       C      0.995490000000     0.991560000000     0.427200000000     0.398366   
C3       C      0.434520000000     0.427330000000     0.344860000000     0.400884   
C4       C      0.057790000000     0.051810000000     0.341200000000     0.400074   
C5       C      0.497360000000     0.253220000000     0.243440000000     0.399439   
C6       C      0.507340000000     0.264520000000     0.408010000000     0.400534   
C7       C      0.064350000000     0.321000000000     0.319990000000     0.398045   
C8       C      0.440560000000     0.196800000000     0.333370000000     0.397637   
C9       C      0.243110000000     0.999550000000     0.259660000000     0.401607   
C10      C      0.257880000000     0.013850000000     0.423490000000     0.400405   
C11      C      0.188420000000     0.445330000000     0.349750000000     0.398572   
C12      C      0.312540000000     0.068510000000     0.331420000000     0.397915   
C13      C      0.250320000000     0.245540000000     0.405010000000     0.399751   
C14      C      0.244190000000     0.237840000000     0.240050000000     0.399044   
C15      C      0.185840000000     0.180250000000     0.330670000000     0.400395   
C16      C      0.309640000000     0.303530000000     0.316740000000     0.400847   
C17      C      0.499020000000     0.994230000000     0.091660000000     0.401749   
C18      C      0.493570000000     0.002910000000     0.927770000000     0.402421   
C19      C      0.059130000000     0.998920000000     0.001870000000     0.400401   
C20      C      0.435820000000     0.998870000000     0.017570000000     0.402043   
C21      C      0.510680000000     0.255870000000     0.074450000000     0.399047   
C22      C      0.006910000000     0.251960000000     0.909230000000     0.401643   
C23      C      0.446190000000     0.253720000000     0.993700000000     0.398678   
C24      C      0.070240000000     0.253650000000     0.989760000000     0.399383   
C25      C      0.252560000000     0.001500000000     0.090840000000     0.401852   
C26      C      0.246950000000     0.000210000000     0.926260000000     0.401959   
C27      C      0.186840000000     0.000150000000     0.013020000000     0.400094   
C28      C      0.310730000000     0.000630000000     0.003710000000     0.401219   
C29      C      0.264880000000     0.251170000000     0.072920000000     0.398797   
C30      C      0.249680000000     0.254420000000     0.909010000000     0.398309   
C31      C      0.319140000000     0.252870000000     0.979320000000     0.399244   
C32      C      0.196270000000     0.252830000000     0.002820000000     0.399327   
C33      C      0.501410000000     0.440620000000     0.672670000000     0.39975    
C34      C      0.501840000000     0.064800000000     0.684950000000     0.400418   
C35      C      0.502960000000     0.008120000000     0.595770000000     0.400905   
C36      C      0.501630000000     0.998150000000     0.760230000000     0.402178   
C37      C      0.500070000000     0.189970000000     0.662710000000     0.399857   
C38      C      0.499750000000     0.313700000000     0.650600000000     0.400468   
C39      C      0.499510000000     0.247220000000     0.575090000000     0.400802   
C40      C      0.499200000000     0.256220000000     0.739830000000     0.399351   
C41      C      0.249690000000     0.065290000000     0.669930000000     0.400715   
C42      C      0.248520000000     0.440820000000     0.681360000000     0.40109    
C43      C      0.245300000000     0.005930000000     0.756790000000     0.401977   
C44      C      0.251410000000     0.000150000000     0.592420000000     0.400335   
C45      C      0.253290000000     0.193250000000     0.649660000000     0.400931   
C46      C      0.252320000000     0.316630000000     0.660580000000     0.400391   
C47      C      0.255420000000     0.260360000000     0.573730000000     0.399986   
C48      C      0.252050000000     0.250540000000     0.738680000000     0.398251   
C49      C      0.282330000000     0.408590000000     0.692600000000    -0.0115861  
C50      C      0.215230000000     0.374130000000     0.687010000000    -0.0115487  
C51      C      0.285090000000     0.383350000000     0.661210000000    -0.0118472  
C52      C      0.217540000000     0.348380000000     0.656000000000    -0.0119004  
C53      C      0.219540000000     0.127180000000     0.638120000000    -0.0116358  
C54      C      0.286640000000     0.160000000000     0.643730000000    -0.011625   
C55      C      0.216800000000     0.099050000000     0.669290000000    -0.0117948  
C56      C      0.284360000000     0.131870000000     0.674600000000    -0.0118286  
C57      C      0.033630000000     0.380110000000     0.641580000000    -0.0102775  
C58      C      0.466380000000     0.346840000000     0.643080000000    -0.0115857  
C59      C      0.034680000000     0.407210000000     0.673210000000    -0.0120101  
C60      C      0.466960000000     0.373900000000     0.674400000000    -0.0119828  
C61      C      0.467910000000     0.097210000000     0.693930000000    -0.011653   
C62      C      0.035150000000     0.131370000000     0.692490000000    -0.011416   
C63      C      0.466840000000     0.123220000000     0.662280000000    -0.0119542  
C64      C      0.034560000000     0.157810000000     0.661100000000    -0.0117562  
C65      C      0.213910000000     0.227550000000     0.845070000000    -0.011775   
C66      C      0.271040000000     0.287320000000     0.842820000000    -0.0113168  
C67      C      0.223820000000     0.217170000000     0.803460000000    -0.0121999  
C68      C      0.283430000000     0.275050000000     0.804970000000    -0.0112457  
C69      C      0.281090000000     0.525790000000     0.861890000000    -0.0112478  
C70      C      0.221570000000     0.467980000000     0.859940000000    -0.0109142  
C71      C      0.270960000000     0.039220000000     0.821950000000    -0.0109394  
C72      C      0.210610000000     0.982460000000     0.821550000000    -0.0111376  
C73      C      0.351940000000     0.219390000000     0.969180000000    -0.0120171  
C74      C      0.385240000000     0.286810000000     0.968190000000    -0.0118334  
C75      C      0.379670000000     0.219770000000     0.999330000000    -0.0116588  
C76      C      0.413340000000     0.287550000000     0.997980000000    -0.0116318  
C77      C      0.102710000000     0.219590000000     0.983830000000    -0.0115816  
C78      C      0.136780000000     0.287380000000     0.984700000000    -0.0115782  
C79      C      0.130190000000     0.219330000000     0.013820000000    -0.0122336  
C80      C      0.164130000000     0.286740000000     0.014540000000    -0.0121352  
C81      C      0.027310000000     0.289990000000     0.804290000000    -0.00996096 
C82      C      0.467450000000     0.232780000000     0.806470000000    -0.0114854  
C83      C      0.038860000000     0.278320000000     0.843490000000    -0.0117536  
C84      C      0.480030000000     0.219790000000     0.843690000000    -0.0112596  
C85      C      0.343030000000     0.966750000000     0.994440000000    -0.0112011  
C86      C      0.377180000000     0.034390000000     0.997980000000    -0.010702   
C87      C      0.369570000000     0.465110000000     0.026090000000    -0.0120734  
C88      C      0.403770000000     0.532600000000     0.029100000000    -0.0122017  
C89      C      0.120490000000     0.465730000000     0.020370000000    -0.012433   
C90      C      0.153860000000     0.033530000000     0.020740000000    -0.0122618  
C91      C      0.092250000000     0.465540000000     0.991240000000    -0.0114973  
C92      C      0.125260000000     0.033240000000     0.992290000000    -0.0111554  
C93      C      0.472600000000     0.464960000000     0.824610000000    -0.0113256  
C94      C      0.032430000000     0.022660000000     0.826920000000    -0.011348   
C95      C      0.460130000000     0.477520000000     0.862250000000    -0.0109154  
C96      C      0.018790000000     0.036200000000     0.862510000000    -0.00960728 
C97      C      0.217650000000     0.240960000000     0.469680000000    -0.0115612  
C98      C      0.277260000000     0.242930000000     0.471670000000    -0.0110882  
C99      C      0.228340000000     0.265130000000     0.508000000000    -0.0112569  
C100     C      0.288790000000     0.269200000000     0.508220000000    -0.0115786  
C101     C      0.242550000000     0.207280000000     0.173950000000    -0.0118143  
C102     C      0.241330000000     0.265410000000     0.173970000000    -0.0114273  
C103     C      0.268620000000     0.220950000000     0.137000000000    -0.0115412  
C104     C      0.270590000000     0.280460000000     0.140670000000    -0.0115983  
C105     C      0.280880000000     0.997110000000     0.527680000000    -0.0115335  
C106     C      0.220790000000     0.495100000000     0.525710000000    -0.0111692  
C107     C      0.292140000000     0.019890000000     0.487860000000    -0.0116181  
C108     C      0.234440000000     0.522360000000     0.490330000000    -0.0113158  
C109     C      0.234990000000     0.464270000000     0.196060000000    -0.0112485  
C110     C      0.233370000000     0.021440000000     0.192970000000    -0.0110741  
C111     C      0.258100000000     0.475120000000     0.156730000000    -0.0114901  
C112     C      0.259120000000     0.033930000000     0.156190000000    -0.0108556  
C113     C      0.028110000000     0.243850000000     0.509780000000    -0.00979016 
C114     C      0.468470000000     0.241720000000     0.508760000000    -0.0112417  
C115     C      0.040610000000     0.269800000000     0.472860000000    -0.011332   
C116     C      0.482290000000     0.270260000000     0.474590000000    -0.0114264  
C117     C      0.408250000000     0.130700000000     0.344910000000    -0.0122195  
C118     C      0.374530000000     0.164570000000     0.344290000000    -0.0122679  
C119     C      0.378410000000     0.100700000000     0.318990000000    -0.0120584  
C120     C      0.344650000000     0.134440000000     0.318610000000    -0.0118903  
C121     C      0.155230000000     0.378400000000     0.353200000000    -0.012356   
C122     C      0.121610000000     0.412200000000     0.352910000000    -0.0120281  
C123     C      0.131180000000     0.354200000000     0.318110000000    -0.0119126  
C124     C      0.097460000000     0.387960000000     0.317960000000    -0.0119023  
C125     C      0.991450000000     0.218420000000     0.179700000000    -0.0136984  
C126     C      0.489960000000     0.276250000000     0.176050000000    -0.0114791  
C127     C      0.015130000000     0.229360000000     0.140840000000    -0.00941892 
C128     C      0.516270000000     0.288660000000     0.139570000000    -0.0114176  
C129     C      0.463080000000     0.487090000000     0.491910000000    -0.0116585  
C130     C      0.021620000000     0.486900000000     0.494120000000    -0.00977917 
C131     C      0.475210000000     0.013020000000     0.530590000000    -0.0113008  
C132     C      0.035080000000     0.015780000000     0.529720000000    -0.011517   
C133     C      0.401050000000     0.360490000000     0.346380000000    -0.0116733  
C134     C      0.367830000000     0.394890000000     0.346280000000    -0.0116332  
C135     C      0.376270000000     0.336050000000     0.312020000000    -0.0120564  
C136     C      0.343090000000     0.370290000000     0.312070000000    -0.0116312  
C137     C      0.154520000000     0.115560000000     0.348970000000    -0.0115745  
C138     C      0.120790000000     0.149320000000     0.346630000000    -0.0116199  
C139     C      0.123150000000     0.083420000000     0.327680000000    -0.0119701  
C140     C      0.089060000000     0.117030000000     0.325920000000    -0.0119071  
C141     C      0.510430000000     0.526050000000     0.199380000000    -0.0111736  
C142     C      0.009080000000     0.967320000000     0.196710000000    -0.00877444 
C143     C      0.491270000000     0.517760000000     0.157630000000    -0.0116241  
C144     C      0.989240000000     0.958520000000     0.155180000000    -0.0131013  
C145     C      0.497680000000     0.989350000000     0.262440000000     0.40162    
C146     C      0.995380000000     0.489990000000     0.427190000000     0.397457   
C147     C      0.433800000000     0.927930000000     0.346000000000     0.401037   
C148     C      0.058570000000     0.551210000000     0.342140000000     0.399865   
C149     C      0.497360000000     0.753220000000     0.243500000000     0.399478   
C150     C      0.507350000000     0.764520000000     0.408070000000     0.40082    
C151     C      0.064510000000     0.820840000000     0.320060000000     0.398101   
C152     C      0.440400000000     0.696950000000     0.333420000000     0.397443   
C153     C      0.242650000000     0.499970000000     0.259570000000     0.400767   
C154     C      0.257480000000     0.514190000000     0.423580000000     0.399573   
C155     C      0.188820000000     0.944960000000     0.349780000000     0.398263   
C156     C      0.312140000000     0.568880000000     0.331440000000     0.397951   
C157     C      0.250470000000     0.745610000000     0.405770000000     0.399961   
C158     C      0.244350000000     0.737870000000     0.240810000000     0.398921   
C159     C      0.186290000000     0.680030000000     0.331530000000     0.400223   
C160     C      0.309510000000     0.803880000000     0.317550000000     0.400786   
C161     C      0.499150000000     0.493870000000     0.091700000000     0.400772   
C162     C      0.493510000000     0.502850000000     0.927690000000     0.401294   
C163     C      0.059250000000     0.498740000000     0.001470000000     0.399221   
C164     C      0.435870000000     0.498640000000     0.017990000000     0.401044   
C165     C      0.510760000000     0.755880000000     0.074540000000     0.399042   
C166     C      0.006950000000     0.751980000000     0.909320000000     0.401864   
C167     C      0.446250000000     0.753750000000     0.993840000000     0.398537   
C168     C      0.070290000000     0.753660000000     0.989860000000     0.399286   
C169     C      0.252750000000     0.501880000000     0.090980000000     0.401054   
C170     C      0.247100000000     0.499220000000     0.926220000000     0.401236   
C171     C      0.186850000000     0.499940000000     0.012810000000     0.399592   
C172     C      0.310810000000     0.500320000000     0.004150000000     0.401181   
C173     C      0.264870000000     0.751190000000     0.073610000000     0.398784   
C174     C      0.249690000000     0.754450000000     0.909700000000     0.39845    
C175     C      0.319140000000     0.752900000000     0.979990000000     0.399225   
C176     C      0.196250000000     0.752850000000     0.003460000000     0.399381   
C177     C      0.501620000000     0.940810000000     0.672690000000     0.400179   
C178     C      0.501630000000     0.564640000000     0.684520000000     0.40043    
C179     C      0.502650000000     0.507640000000     0.595420000000     0.399916   
C180     C      0.501510000000     0.498140000000     0.760100000000     0.401192   
C181     C      0.499990000000     0.689970000000     0.662690000000     0.399998   
C182     C      0.499850000000     0.813800000000     0.650710000000     0.400225   
C183     C      0.499510000000     0.747290000000     0.575160000000     0.40086    
C184     C      0.499230000000     0.756240000000     0.739900000000     0.399527   
C185     C      0.249420000000     0.565130000000     0.670260000000     0.400594   
C186     C      0.248890000000     0.941060000000     0.681510000000     0.401039   
C187     C      0.245160000000     0.505620000000     0.757010000000     0.40106    
C188     C      0.250890000000     0.499960000000     0.592410000000     0.399543   
C189     C      0.253240000000     0.693220000000     0.650330000000     0.400875   
C190     C      0.252540000000     0.816730000000     0.661310000000     0.400495   
C191     C      0.255540000000     0.760450000000     0.574460000000     0.400149   
C192     C      0.252110000000     0.750540000000     0.739390000000     0.398252   
C193     C      0.282680000000     0.908830000000     0.693020000000    -0.0116645  
C194     C      0.215570000000     0.874390000000     0.687460000000    -0.0115411  
C195     C      0.285400000000     0.883460000000     0.661810000000    -0.011821   
C196     C      0.217840000000     0.848550000000     0.656580000000    -0.0119257  
C197     C      0.219370000000     0.627160000000     0.638740000000    -0.0117429  
C198     C      0.286480000000     0.659870000000     0.644290000000    -0.0115773  
C199     C      0.216610000000     0.598970000000     0.669830000000    -0.0117129  
C200     C      0.284170000000     0.631700000000     0.675100000000    -0.0119289  
C201     C      0.033790000000     0.880200000000     0.641660000000    -0.0118187  
C202     C      0.466550000000     0.846990000000     0.643110000000    -0.0116165  
C203     C      0.034860000000     0.907370000000     0.673200000000    -0.0115898  
C204     C      0.467140000000     0.874090000000     0.674370000000    -0.0119666  
C205     C      0.467720000000     0.597060000000     0.693540000000    -0.011711   
C206     C      0.034970000000     0.631200000000     0.692120000000    -0.0113275  
C207     C      0.466690000000     0.623220000000     0.662060000000    -0.0119032  
C208     C      0.034410000000     0.657740000000     0.660890000000    -0.0120156  
C209     C      0.213930000000     0.727590000000     0.845750000000    -0.0117524  
C210     C      0.271110000000     0.787330000000     0.843500000000    -0.0113277  
C211     C      0.223840000000     0.717180000000     0.804160000000    -0.0123087  
C212     C      0.283490000000     0.775030000000     0.805690000000    -0.0112605  
C213     C      0.280570000000     0.027040000000     0.862040000000    -0.0113406  
C214     C      0.221180000000     0.969140000000     0.860110000000    -0.0102989  
C215     C      0.271120000000     0.538480000000     0.822440000000    -0.0111757  
C216     C      0.210730000000     0.481810000000     0.821980000000    -0.0114705  
C217     C      0.351920000000     0.719430000000     0.969660000000    -0.0119958  
C218     C      0.385210000000     0.786850000000     0.968710000000    -0.011762   
C219     C      0.379740000000     0.719800000000     0.999650000000    -0.0116586  
C220     C      0.413420000000     0.787580000000     0.998320000000    -0.0116736  
C221     C      0.102780000000     0.719600000000     0.984090000000    -0.0115987  
C222     C      0.136840000000     0.787390000000     0.984950000000    -0.0116283  
C223     C      0.130150000000     0.719340000000     0.014260000000    -0.0122643  
C224     C      0.164090000000     0.786750000000     0.014990000000    -0.0120294  
C225     C      0.027360000000     0.790000000000     0.804370000000    -0.010012   
C226     C      0.467480000000     0.732800000000     0.806550000000    -0.0115589  
C227     C      0.038890000000     0.778320000000     0.843580000000    -0.0116841  
C228     C      0.480060000000     0.719810000000     0.843790000000    -0.011191   
C229     C      0.343150000000     0.466390000000     0.995360000000    -0.011095   
C230     C      0.377300000000     0.534040000000     0.998570000000    -0.0105787  
C231     C      0.369480000000     0.965380000000     0.025010000000    -0.0116084  
C232     C      0.403680000000     0.032820000000     0.028320000000    -0.011884   
C233     C      0.120520000000     0.965840000000     0.020480000000    -0.0120259  
C234     C      0.153900000000     0.533440000000     0.020310000000    -0.0123616  
C235     C      0.092090000000     0.965710000000     0.991770000000    -0.0111158  
C236     C      0.125400000000     0.533070000000     0.991560000000    -0.0112375  
C237     C      0.472740000000     0.965010000000     0.824700000000    -0.0111436  
C238     C      0.032320000000     0.522610000000     0.826860000000    -0.0114984  
C239     C      0.460290000000     0.977560000000     0.862330000000    -0.0104718  
C240     C      0.018620000000     0.536190000000     0.862380000000    -0.00979614 
C241     C      0.217780000000     0.740940000000     0.470450000000    -0.0114852  
C242     C      0.277490000000     0.743140000000     0.472430000000    -0.0110818  
C243     C      0.228430000000     0.765170000000     0.508720000000    -0.0111876  
C244     C      0.288950000000     0.769430000000     0.508950000000    -0.0115211  
C245     C      0.242800000000     0.707340000000     0.174730000000    -0.011795   
C246     C      0.241290000000     0.765320000000     0.174730000000    -0.0114699  
C247     C      0.268760000000     0.721060000000     0.137670000000    -0.0114215  
C248     C      0.270480000000     0.780440000000     0.141360000000    -0.0115632  
C249     C      0.280370000000     0.496950000000     0.527540000000    -0.0119671  
C250     C      0.221360000000     0.995380000000     0.525820000000    -0.0102985  
C251     C      0.291760000000     0.520110000000     0.487990000000    -0.0115899  
C252     C      0.234870000000     0.022230000000     0.490080000000    -0.0110259  
C253     C      0.235360000000     0.963870000000     0.196180000000    -0.0111178  
C254     C      0.233140000000     0.521910000000     0.192680000000    -0.0113275  
C255     C      0.257810000000     0.974470000000     0.156340000000    -0.0113173  
C256     C      0.259370000000     0.534540000000     0.156280000000    -0.0110552  
C257     C      0.028040000000     0.743800000000     0.509860000000    -0.00975032 
C258     C      0.468490000000     0.741870000000     0.508840000000    -0.0113553  
C259     C      0.040590000000     0.769720000000     0.472920000000    -0.0113026  
C260     C      0.482380000000     0.770380000000     0.474640000000    -0.0112704  
C261     C      0.407870000000     0.630850000000     0.344890000000    -0.0121799  
C262     C      0.374370000000     0.664930000000     0.344400000000    -0.0122601  
C263     C      0.377990000000     0.600970000000     0.318910000000    -0.011977   
C264     C      0.344370000000     0.634850000000     0.318780000000    -0.0120177  
C265     C      0.155530000000     0.878020000000     0.353150000000    -0.0122025  
C266     C      0.122020000000     0.911930000000     0.353070000000    -0.0120914  
C267     C      0.131350000000     0.853820000000     0.318110000000    -0.0121022  
C268     C      0.097830000000     0.887800000000     0.318080000000    -0.0119693  
C269     C      0.991390000000     0.718410000000     0.179750000000    -0.0137351  
C270     C      0.490050000000     0.776320000000     0.176110000000    -0.0114104  
C271     C      0.015120000000     0.729330000000     0.140940000000    -0.00945589 
C272     C      0.516390000000     0.788700000000     0.139660000000    -0.0114418  
C273     C      0.463760000000     0.988920000000     0.492060000000    -0.0113746  
C274     C      0.022410000000     0.988990000000     0.493740000000    -0.00904161 
C275     C      0.474800000000     0.511890000000     0.529900000000    -0.0113769  
C276     C      0.034560000000     0.514460000000     0.529340000000    -0.0114983  
C277     C      0.400540000000     0.861100000000     0.347910000000    -0.0117845  
C278     C      0.367080000000     0.895250000000     0.347570000000    -0.0116593  
C279     C      0.376140000000     0.836810000000     0.313230000000    -0.0118955  
C280     C      0.342570000000     0.870670000000     0.313170000000    -0.0116835  
C281     C      0.155380000000     0.615390000000     0.350080000000    -0.0115497  
C282     C      0.121320000000     0.648800000000     0.347840000000    -0.0116051  
C283     C      0.123990000000     0.583030000000     0.329070000000    -0.0119438  
C284     C      0.089680000000     0.616440000000     0.327180000000    -0.011846   
C285     C      0.508900000000     0.025810000000     0.199690000000    -0.0112585  
C286     C      0.010710000000     0.467600000000     0.196290000000    -0.00914765 
C287     C      0.490930000000     0.018110000000     0.157270000000    -0.0114171  
C288     C      0.989850000000     0.458280000000     0.155370000000    -0.0132895  
C289     C      0.999340000000     0.489510000000     0.262260000000     0.396595   
C290     C      0.495490000000     0.991560000000     0.427200000000     0.400875   
C291     C      0.934520000000     0.427330000000     0.344860000000     0.400953   
C292     C      0.557790000000     0.051810000000     0.341200000000     0.400101   
C293     C      0.997360000000     0.253220000000     0.243440000000     0.396879   
C294     C      0.007340000000     0.264520000000     0.408010000000     0.403294   
C295     C      0.564350000000     0.321000000000     0.319990000000     0.398087   
C296     C      0.940560000000     0.196800000000     0.333370000000     0.397703   
C297     C      0.743110000000     0.999550000000     0.259660000000     0.401595   
C298     C      0.757880000000     0.013850000000     0.423490000000     0.400417   
C299     C      0.688420000000     0.445330000000     0.349750000000     0.398571   
C300     C      0.812530000000     0.068510000000     0.331420000000     0.397963   
C301     C      0.750320000000     0.245540000000     0.405010000000     0.39976    
C302     C      0.744190000000     0.237840000000     0.240050000000     0.399043   
C303     C      0.685830000000     0.180250000000     0.330670000000     0.400268   
C304     C      0.809640000000     0.303530000000     0.316740000000     0.40085    
C305     C      0.999030000000     0.994230000000     0.091660000000     0.398988   
C306     C      0.993580000000     0.002910000000     0.927770000000     0.399949   
C307     C      0.559130000000     0.998920000000     0.001870000000     0.400447   
C308     C      0.935820000000     0.998870000000     0.017570000000     0.402144   
C309     C      0.010680000000     0.255870000000     0.074450000000     0.401678   
C310     C      0.506910000000     0.251960000000     0.909230000000     0.3991     
C311     C      0.946190000000     0.253720000000     0.993700000000     0.398694   
C312     C      0.570240000000     0.253650000000     0.989760000000     0.399356   
C313     C      0.752550000000     0.001500000000     0.090840000000     0.401843   
C314     C      0.746950000000     0.000210000000     0.926260000000     0.401968   
C315     C      0.686840000000     0.000150000000     0.013020000000     0.400098   
C316     C      0.810720000000     0.000630000000     0.003710000000     0.401327   
C317     C      0.764880000000     0.251170000000     0.072920000000     0.398795   
C318     C      0.749680000000     0.254420000000     0.909010000000     0.398309   
C319     C      0.819140000000     0.252870000000     0.979320000000     0.39924    
C320     C      0.696270000000     0.252830000000     0.002820000000     0.399327   
C321     C      0.001410000000     0.440620000000     0.672670000000     0.402308   
C322     C      0.001840000000     0.064800000000     0.684950000000     0.402993   
C323     C      0.002960000000     0.008120000000     0.595770000000     0.403472   
C324     C      0.001630000000     0.998150000000     0.760230000000     0.404752   
C325     C      0.000070000000     0.189970000000     0.662710000000     0.402477   
C326     C      0.999750000000     0.313700000000     0.650600000000     0.398108   
C327     C      0.999510000000     0.247220000000     0.575090000000     0.398124   
C328     C      0.999200000000     0.256220000000     0.739830000000     0.396886   
C329     C      0.749690000000     0.065290000000     0.669930000000     0.40072    
C330     C      0.748520000000     0.440820000000     0.681360000000     0.401097   
C331     C      0.745300000000     0.005930000000     0.756790000000     0.401992   
C332     C      0.751410000000     0.000150000000     0.592420000000     0.400356   
C333     C      0.753290000000     0.193250000000     0.649660000000     0.400938   
C334     C      0.752320000000     0.316630000000     0.660580000000     0.400398   
C335     C      0.755420000000     0.260360000000     0.573730000000     0.399993   
C336     C      0.752050000000     0.250540000000     0.738680000000     0.398259   
C337     C      0.782330000000     0.408590000000     0.692600000000    -0.0115808  
C338     C      0.715230000000     0.374130000000     0.687010000000    -0.0115434  
C339     C      0.785090000000     0.383350000000     0.661210000000    -0.0118422  
C340     C      0.717540000000     0.348380000000     0.656000000000    -0.0118954  
C341     C      0.719540000000     0.127180000000     0.638120000000    -0.0116285  
C342     C      0.786640000000     0.160000000000     0.643730000000    -0.0116051  
C343     C      0.716800000000     0.099050000000     0.669290000000    -0.0117915  
C344     C      0.784360000000     0.131870000000     0.674600000000    -0.0118676  
C345     C      0.533630000000     0.380110000000     0.641580000000    -0.0118552  
C346     C      0.966380000000     0.346840000000     0.643080000000    -0.0114884  
C347     C      0.534680000000     0.407210000000     0.673210000000    -0.0118522  
C348     C      0.966960000000     0.373900000000     0.674400000000    -0.0134768  
C349     C      0.967910000000     0.097210000000     0.693930000000    -0.0128295  
C350     C      0.535150000000     0.131370000000     0.692490000000    -0.0116041  
C351     C      0.966840000000     0.123220000000     0.662280000000    -0.0131233  
C352     C      0.534560000000     0.157810000000     0.661100000000    -0.0119634  
C353     C      0.713910000000     0.227550000000     0.845070000000    -0.0117811  
C354     C      0.771050000000     0.287320000000     0.842820000000    -0.0113362  
C355     C      0.723830000000     0.217170000000     0.803460000000    -0.0121677  
C356     C      0.783430000000     0.275050000000     0.804970000000    -0.0112265  
C357     C      0.781090000000     0.525790000000     0.861890000000    -0.0112312  
C358     C      0.721570000000     0.467980000000     0.859940000000    -0.0109123  
C359     C      0.770960000000     0.039220000000     0.821950000000    -0.0109372  
C360     C      0.710610000000     0.982460000000     0.821550000000    -0.0111504  
C361     C      0.851940000000     0.219390000000     0.969180000000    -0.0120104  
C362     C      0.885240000000     0.286810000000     0.968190000000    -0.0118415  
C363     C      0.879670000000     0.219770000000     0.999330000000    -0.0116781  
C364     C      0.913340000000     0.287550000000     0.997980000000    -0.0116157  
C365     C      0.602710000000     0.219590000000     0.983830000000    -0.0115448  
C366     C      0.636780000000     0.287380000000     0.984700000000    -0.0115803  
C367     C      0.630190000000     0.219330000000     0.013820000000    -0.0122456  
C368     C      0.664130000000     0.286740000000     0.014540000000    -0.0121299  
C369     C      0.527310000000     0.289990000000     0.804290000000    -0.0114465  
C370     C      0.967450000000     0.232780000000     0.806470000000    -0.0113739  
C371     C      0.538860000000     0.278320000000     0.843490000000    -0.0116544  
C372     C      0.980030000000     0.219790000000     0.843690000000    -0.0127528  
C373     C      0.843030000000     0.966750000000     0.994440000000    -0.0112167  
C374     C      0.877180000000     0.034390000000     0.997980000000    -0.0107312  
C375     C      0.869570000000     0.465110000000     0.026090000000    -0.012076   
C376     C      0.903770000000     0.532600000000     0.029100000000    -0.0121676  
C377     C      0.620490000000     0.465730000000     0.020370000000    -0.012445   
C378     C      0.653850000000     0.033530000000     0.020740000000    -0.0122748  
C379     C      0.592250000000     0.465540000000     0.991240000000    -0.0114766  
C380     C      0.625260000000     0.033240000000     0.992290000000    -0.0111563  
C381     C      0.972600000000     0.464960000000     0.824610000000    -0.012828   
C382     C      0.532430000000     0.022660000000     0.826920000000    -0.0112006  
C383     C      0.960130000000     0.477520000000     0.862250000000    -0.0107893  
C384     C      0.518790000000     0.036200000000     0.862510000000    -0.0111054  
C385     C      0.717650000000     0.240960000000     0.469680000000    -0.0115506  
C386     C      0.777260000000     0.242930000000     0.471670000000    -0.0110459  
C387     C      0.728340000000     0.265130000000     0.508000000000    -0.0112568  
C388     C      0.788790000000     0.269200000000     0.508220000000    -0.0115848  
C389     C      0.742550000000     0.207280000000     0.173950000000    -0.0118142  
C390     C      0.741330000000     0.265410000000     0.173970000000    -0.0114231  
C391     C      0.768620000000     0.220950000000     0.137000000000    -0.0115201  
C392     C      0.770590000000     0.280460000000     0.140670000000    -0.0115936  
C393     C      0.780880000000     0.997110000000     0.527680000000    -0.0115541  
C394     C      0.720790000000     0.495100000000     0.525710000000    -0.0111618  
C395     C      0.792140000000     0.019890000000     0.487860000000    -0.0115959  
C396     C      0.734440000000     0.522360000000     0.490330000000    -0.0113136  
C397     C      0.734990000000     0.464270000000     0.196060000000    -0.0112447  
C398     C      0.733370000000     0.021440000000     0.192970000000    -0.0110606  
C399     C      0.758100000000     0.475120000000     0.156730000000    -0.0114861  
C400     C      0.759120000000     0.033930000000     0.156190000000    -0.0108639  
C401     C      0.528110000000     0.243850000000     0.509780000000    -0.011252   
C402     C      0.968470000000     0.241720000000     0.508760000000    -0.0111371  
C403     C      0.540610000000     0.269800000000     0.472860000000    -0.0112457  
C404     C      0.982290000000     0.270260000000     0.474590000000    -0.0128797  
C405     C      0.908250000000     0.130700000000     0.344910000000    -0.0121902  
C406     C      0.874530000000     0.164570000000     0.344290000000    -0.012308   
C407     C      0.878410000000     0.100700000000     0.318990000000    -0.0120669  
C408     C      0.844660000000     0.134440000000     0.318610000000    -0.0118069  
C409     C      0.655230000000     0.378400000000     0.353200000000    -0.0122978  
C410     C      0.621610000000     0.412200000000     0.352910000000    -0.0120267  
C411     C      0.631190000000     0.354200000000     0.318110000000    -0.0120415  
C412     C      0.597460000000     0.387960000000     0.317960000000    -0.0118852  
C413     C      0.491450000000     0.218420000000     0.179700000000    -0.0114635  
C414     C      0.989960000000     0.276250000000     0.176050000000    -0.0136504  
C415     C      0.515130000000     0.229360000000     0.140840000000    -0.0116877  
C416     C      0.016270000000     0.288660000000     0.139570000000    -0.00921013 
C417     C      0.963080000000     0.487090000000     0.491910000000    -0.01154    
C418     C      0.521620000000     0.486900000000     0.494120000000    -0.011282   
C419     C      0.975210000000     0.013020000000     0.530590000000    -0.0127645  
C420     C      0.535080000000     0.015780000000     0.529720000000    -0.0114032  
C421     C      0.901050000000     0.360490000000     0.346380000000    -0.0116127  
C422     C      0.867830000000     0.394890000000     0.346280000000    -0.0116456  
C423     C      0.876270000000     0.336050000000     0.312020000000    -0.0120748  
C424     C      0.843090000000     0.370290000000     0.312070000000    -0.0116237  
C425     C      0.654520000000     0.115560000000     0.348970000000    -0.0115639  
C426     C      0.620790000000     0.149320000000     0.346630000000    -0.0116454  
C427     C      0.623150000000     0.083420000000     0.327680000000    -0.0119842  
C428     C      0.589060000000     0.117030000000     0.325920000000    -0.0118675  
C429     C      0.010430000000     0.526050000000     0.199380000000    -0.00838633 
C430     C      0.509080000000     0.967320000000     0.196710000000    -0.0107942  
C431     C      0.991270000000     0.517760000000     0.157630000000    -0.0164105  
C432     C      0.489240000000     0.958520000000     0.155180000000    -0.0108807  
C433     C      0.997680000000     0.989350000000     0.262440000000     0.397602   
C434     C      0.495380000000     0.489990000000     0.427190000000     0.399949   
C435     C      0.933810000000     0.927930000000     0.346000000000     0.401184   
C436     C      0.558570000000     0.551210000000     0.342140000000     0.400151   
C437     C      0.997360000000     0.753220000000     0.243500000000     0.396904   
C438     C      0.007350000000     0.764520000000     0.408070000000     0.403367   
C439     C      0.564510000000     0.820840000000     0.320060000000     0.398151   
C440     C      0.940400000000     0.696950000000     0.333420000000     0.397747   
C441     C      0.742650000000     0.499970000000     0.259570000000     0.400764   
C442     C      0.757480000000     0.514190000000     0.423580000000     0.399573   
C443     C      0.688820000000     0.944960000000     0.349780000000     0.398261   
C444     C      0.812140000000     0.568880000000     0.331440000000     0.397708   
C445     C      0.750470000000     0.745610000000     0.405770000000     0.399961   
C446     C      0.744350000000     0.737870000000     0.240810000000     0.398918   
C447     C      0.686290000000     0.680030000000     0.331530000000     0.400221   
C448     C      0.809510000000     0.803880000000     0.317550000000     0.400787   
C449     C      0.999150000000     0.493870000000     0.091700000000     0.398051   
C450     C      0.993510000000     0.502850000000     0.927690000000     0.398813   
C451     C      0.559250000000     0.498740000000     0.001470000000     0.399236   
C452     C      0.935870000000     0.498640000000     0.017990000000     0.401126   
C453     C      0.010760000000     0.755880000000     0.074540000000     0.401682   
C454     C      0.506950000000     0.751980000000     0.909320000000     0.399264   
C455     C      0.946250000000     0.753750000000     0.993840000000     0.398552   
C456     C      0.570290000000     0.753660000000     0.989860000000     0.399379   
C457     C      0.752750000000     0.501880000000     0.090980000000     0.401053   
C458     C      0.747100000000     0.499220000000     0.926220000000     0.401233   
C459     C      0.686850000000     0.499940000000     0.012810000000     0.399563   
C460     C      0.810810000000     0.500320000000     0.004150000000     0.401086   
C461     C      0.764870000000     0.751190000000     0.073610000000     0.398777   
C462     C      0.749690000000     0.754450000000     0.909700000000     0.398433   
C463     C      0.819140000000     0.752900000000     0.979990000000     0.399222   
C464     C      0.696260000000     0.752850000000     0.003460000000     0.399475   
C465     C      0.001620000000     0.940810000000     0.672690000000     0.402614   
C466     C      0.001630000000     0.564640000000     0.684520000000     0.403017   
C467     C      0.002650000000     0.507640000000     0.595420000000     0.402467   
C468     C      0.001510000000     0.498140000000     0.760100000000     0.403751   
C469     C      0.999990000000     0.689970000000     0.662690000000     0.395843   
C470     C      0.999850000000     0.813800000000     0.650710000000     0.396059   
C471     C      0.999510000000     0.747290000000     0.575160000000     0.398401   
C472     C      0.999230000000     0.756240000000     0.739900000000     0.397067   
C473     C      0.749420000000     0.565130000000     0.670260000000     0.400601   
C474     C      0.748890000000     0.941060000000     0.681510000000     0.40105    
C475     C      0.745160000000     0.505620000000     0.757010000000     0.401067   
C476     C      0.750890000000     0.499960000000     0.592410000000     0.39955    
C477     C      0.753240000000     0.693220000000     0.650330000000     0.401051   
C478     C      0.752540000000     0.816730000000     0.661310000000     0.400505   
C479     C      0.755540000000     0.760450000000     0.574460000000     0.400158   
C480     C      0.752110000000     0.750540000000     0.739390000000     0.398265   
C481     C      0.782670000000     0.908830000000     0.693020000000    -0.0115441  
C482     C      0.715570000000     0.874390000000     0.687460000000    -0.0115327  
C483     C      0.785400000000     0.883460000000     0.661810000000    -0.0118659  
C484     C      0.717840000000     0.848550000000     0.656580000000    -0.0119246  
C485     C      0.719370000000     0.627160000000     0.638740000000    -0.0117294  
C486     C      0.786480000000     0.659870000000     0.644290000000    -0.0115643  
C487     C      0.716610000000     0.598970000000     0.669830000000    -0.0117112  
C488     C      0.784170000000     0.631700000000     0.675100000000    -0.0119268  
C489     C      0.533790000000     0.880200000000     0.641660000000    -0.0117388  
C490     C      0.966550000000     0.846990000000     0.643110000000    -0.0130626  
C491     C      0.534860000000     0.907370000000     0.673200000000    -0.0118967  
C492     C      0.967140000000     0.874090000000     0.674370000000    -0.0130701  
C493     C      0.967720000000     0.597060000000     0.693540000000    -0.0128006  
C494     C      0.534970000000     0.631200000000     0.692120000000    -0.0116041  
C495     C      0.966690000000     0.623220000000     0.662060000000    -0.0133453  
C496     C      0.534410000000     0.657740000000     0.660890000000    -0.0119565  
C497     C      0.713920000000     0.727590000000     0.845750000000    -0.0118039  
C498     C      0.771110000000     0.787330000000     0.843500000000    -0.0113562  
C499     C      0.723840000000     0.717180000000     0.804160000000    -0.0122842  
C500     C      0.783490000000     0.775030000000     0.805690000000    -0.0112438  
C501     C      0.780570000000     0.027040000000     0.862040000000    -0.0113321  
C502     C      0.721180000000     0.969140000000     0.860110000000    -0.010298   
C503     C      0.771120000000     0.538480000000     0.822440000000    -0.0112009  
C504     C      0.710730000000     0.481810000000     0.821980000000    -0.0114627  
C505     C      0.851920000000     0.719430000000     0.969660000000    -0.011994   
C506     C      0.885210000000     0.786850000000     0.968710000000    -0.0117705  
C507     C      0.879740000000     0.719800000000     0.999650000000    -0.0116898  
C508     C      0.913420000000     0.787580000000     0.998320000000    -0.0116567  
C509     C      0.602780000000     0.719600000000     0.984090000000    -0.0115601  
C510     C      0.636840000000     0.787390000000     0.984950000000    -0.0116292  
C511     C      0.630150000000     0.719340000000     0.014260000000    -0.0122897  
C512     C      0.664090000000     0.786750000000     0.014990000000    -0.0120371  
C513     C      0.527350000000     0.790000000000     0.804370000000    -0.0114701  
C514     C      0.967480000000     0.732800000000     0.806550000000    -0.011441   
C515     C      0.538890000000     0.778320000000     0.843580000000    -0.0116198  
C516     C      0.980060000000     0.719810000000     0.843790000000    -0.0126841  
C517     C      0.843150000000     0.466390000000     0.995360000000    -0.0110906  
C518     C      0.877300000000     0.534040000000     0.998570000000    -0.0105926  
C519     C      0.869480000000     0.965380000000     0.025010000000    -0.0116173  
C520     C      0.903680000000     0.032820000000     0.028320000000    -0.0118342  
C521     C      0.620520000000     0.965840000000     0.020480000000    -0.0120399  
C522     C      0.653900000000     0.533440000000     0.020310000000    -0.0123475  
C523     C      0.592090000000     0.965710000000     0.991770000000    -0.0110897  
C524     C      0.625400000000     0.533070000000     0.991560000000    -0.0112701  
C525     C      0.972740000000     0.965010000000     0.824700000000    -0.0126494  
C526     C      0.532320000000     0.522610000000     0.826860000000    -0.0113929  
C527     C      0.960290000000     0.977560000000     0.862330000000    -0.0103227  
C528     C      0.518620000000     0.536190000000     0.862380000000    -0.0112921  
C529     C      0.717780000000     0.740940000000     0.470450000000    -0.011409   
C530     C      0.777490000000     0.743140000000     0.472430000000    -0.0111326  
C531     C      0.728430000000     0.765170000000     0.508720000000    -0.0112089  
C532     C      0.788950000000     0.769430000000     0.508950000000    -0.0115325  
C533     C      0.742800000000     0.707340000000     0.174730000000    -0.0117548  
C534     C      0.741290000000     0.765320000000     0.174730000000    -0.0114629  
C535     C      0.768770000000     0.721060000000     0.137670000000    -0.0115106  
C536     C      0.770480000000     0.780440000000     0.141360000000    -0.0115613  
C537     C      0.780370000000     0.496950000000     0.527540000000    -0.011966   
C538     C      0.721360000000     0.995380000000     0.525820000000    -0.0103087  
C539     C      0.791760000000     0.520110000000     0.487990000000    -0.0115806  
C540     C      0.734870000000     0.022230000000     0.490080000000    -0.0110124  
C541     C      0.735350000000     0.963870000000     0.196180000000    -0.0110872  
C542     C      0.733140000000     0.521910000000     0.192680000000    -0.0113225  
C543     C      0.757810000000     0.974470000000     0.156340000000    -0.0113303  
C544     C      0.759370000000     0.534540000000     0.156280000000    -0.0110518  
C545     C      0.528040000000     0.743800000000     0.509860000000    -0.0112342  
C546     C      0.968490000000     0.741870000000     0.508840000000    -0.0112387  
C547     C      0.540590000000     0.769720000000     0.472920000000    -0.0112021  
C548     C      0.982380000000     0.770380000000     0.474640000000    -0.0127429  
C549     C      0.907870000000     0.630850000000     0.344890000000    -0.0121316  
C550     C      0.874370000000     0.664930000000     0.344400000000    -0.0122861  
C551     C      0.877990000000     0.600970000000     0.318910000000    -0.0120019  
C552     C      0.844370000000     0.634850000000     0.318780000000    -0.0120183  
C553     C      0.655530000000     0.878020000000     0.353150000000    -0.0121971  
C554     C      0.622020000000     0.911930000000     0.353070000000    -0.0121088  
C555     C      0.631350000000     0.853820000000     0.318110000000    -0.0121101  
C556     C      0.597830000000     0.887800000000     0.318080000000    -0.0119049  
C557     C      0.491390000000     0.718410000000     0.179750000000    -0.0114929  
C558     C      0.990050000000     0.776320000000     0.176110000000    -0.0135904  
C559     C      0.515120000000     0.729330000000     0.140940000000    -0.0117315  
C560     C      0.016390000000     0.788700000000     0.139660000000    -0.00922612 
C561     C      0.963760000000     0.988920000000     0.492060000000    -0.0112876  
C562     C      0.522410000000     0.988990000000     0.493740000000    -0.0105447  
C563     C      0.974800000000     0.511890000000     0.529900000000    -0.012895   
C564     C      0.534560000000     0.514460000000     0.529340000000    -0.0113469  
C565     C      0.900540000000     0.861100000000     0.347910000000    -0.0117827  
C566     C      0.867080000000     0.895250000000     0.347570000000    -0.0116814  
C567     C      0.876140000000     0.836810000000     0.313230000000    -0.0118942  
C568     C      0.842570000000     0.870670000000     0.313170000000    -0.0116343  
C569     C      0.655380000000     0.615390000000     0.350080000000    -0.0115372  
C570     C      0.621320000000     0.648800000000     0.347840000000    -0.0116118  
C571     C      0.623990000000     0.583030000000     0.329070000000    -0.0119774  
C572     C      0.589680000000     0.616440000000     0.327180000000    -0.0118038  
C573     C      0.008900000000     0.025810000000     0.199690000000    -0.00577233 
C574     C      0.510710000000     0.467600000000     0.196290000000    -0.011143   
C575     C      0.990920000000     0.018110000000     0.157270000000    -0.0171125  
C576     C      0.489850000000     0.458280000000     0.155370000000    -0.0111178  
Cu1      Cu     0.013170000000     0.472540000000     0.345650000000     0.845406   
Cu2      Cu     0.479400000000     0.006540000000     0.343710000000     0.845936   
Cu3      Cu     0.485780000000     0.275380000000     0.325450000000     0.84176    
Cu4      Cu     0.019060000000     0.242320000000     0.326150000000     0.840076   
Cu5      Cu     0.266800000000     0.490450000000     0.341380000000     0.83443    
Cu6      Cu     0.234280000000     0.023490000000     0.341530000000     0.846193   
Cu7      Cu     0.231100000000     0.258520000000     0.322240000000     0.845031   
Cu8      Cu     0.264090000000     0.225150000000     0.322980000000     0.838758   
Cu9      Cu     0.480670000000     0.465310000000     0.007370000000     0.840473   
Cu10     Cu     0.014010000000     0.031870000000     0.011800000000     0.852304   
Cu11     Cu     0.024870000000     0.286980000000     0.990820000000     0.844649   
Cu12     Cu     0.491730000000     0.220600000000     0.992840000000     0.83938    
Cu13     Cu     0.265440000000     0.033800000000     0.008260000000     0.848643   
Cu14     Cu     0.232490000000     0.467090000000     0.009230000000     0.84102    
Cu15     Cu     0.240950000000     0.219520000000     0.990110000000     0.834129   
Cu16     Cu     0.274240000000     0.285930000000     0.991730000000     0.844731   
Cu17     Cu     0.468620000000     0.486230000000     0.677530000000     0.8405     
Cu18     Cu     0.035150000000     0.019540000000     0.678410000000     0.847725   
Cu19     Cu     0.466510000000     0.235100000000     0.657390000000     0.843782   
Cu20     Cu     0.032810000000     0.268410000000     0.657420000000     0.841916   
Cu21     Cu     0.215420000000     0.486210000000     0.673410000000     0.845782   
Cu22     Cu     0.282020000000     0.019470000000     0.676280000000     0.841383   
Cu23     Cu     0.220080000000     0.238360000000     0.655230000000     0.839412   
Cu24     Cu     0.286360000000     0.271840000000     0.656970000000     0.844338   
Cu25     Cu     0.012420000000     0.973200000000     0.345750000000     0.847098   
Cu26     Cu     0.480200000000     0.505920000000     0.343600000000     0.844637   
Cu27     Cu     0.485890000000     0.775500000000     0.325500000000     0.84151    
Cu28     Cu     0.018940000000     0.742200000000     0.326220000000     0.840149   
Cu29     Cu     0.267220000000     0.990060000000     0.341420000000     0.835519   
Cu30     Cu     0.233880000000     0.523880000000     0.341560000000     0.844625   
Cu31     Cu     0.231040000000     0.758360000000     0.323000000000     0.845171   
Cu32     Cu     0.264460000000     0.725420000000     0.323740000000     0.83902    
Cu33     Cu     0.480580000000     0.965500000000     0.007470000000     0.842827   
Cu34     Cu     0.014090000000     0.531660000000     0.011850000000     0.849748   
Cu35     Cu     0.024930000000     0.787000000000     0.990920000000     0.844855   
Cu36     Cu     0.491790000000     0.720610000000     0.992940000000     0.839563   
Cu37     Cu     0.265490000000     0.533520000000     0.007970000000     0.845994   
Cu38     Cu     0.232450000000     0.967340000000     0.008840000000     0.843033   
Cu39     Cu     0.240950000000     0.719550000000     0.990790000000     0.834116   
Cu40     Cu     0.274230000000     0.785950000000     0.992430000000     0.844754   
Cu41     Cu     0.468830000000     0.986410000000     0.677720000000     0.842204   
Cu42     Cu     0.034920000000     0.519360000000     0.678140000000     0.846947   
Cu43     Cu     0.466520000000     0.735180000000     0.657460000000     0.84404    
Cu44     Cu     0.032830000000     0.768420000000     0.657490000000     0.841451   
Cu45     Cu     0.215750000000     0.986390000000     0.673210000000     0.847788   
Cu46     Cu     0.281680000000     0.519240000000     0.676280000000     0.840819   
Cu47     Cu     0.220170000000     0.738450000000     0.655940000000     0.839611   
Cu48     Cu     0.286450000000     0.771830000000     0.657690000000     0.844365   
Cu49     Cu     0.513170000000     0.472540000000     0.345650000000     0.842018   
Cu50     Cu     0.979390000000     0.006540000000     0.343710000000     0.842074   
Cu51     Cu     0.985780000000     0.275380000000     0.325450000000     0.838207   
Cu52     Cu     0.519060000000     0.242320000000     0.326150000000     0.836342   
Cu53     Cu     0.766800000000     0.490450000000     0.341380000000     0.834389   
Cu54     Cu     0.734280000000     0.023490000000     0.341530000000     0.846236   
Cu55     Cu     0.731100000000     0.258520000000     0.322240000000     0.8451     
Cu56     Cu     0.764090000000     0.225150000000     0.322980000000     0.83879    
Cu57     Cu     0.980670000000     0.465310000000     0.007370000000     0.836684   
Cu58     Cu     0.514020000000     0.031870000000     0.011800000000     0.848851   
Cu59     Cu     0.524870000000     0.286980000000     0.990820000000     0.840733   
Cu60     Cu     0.991730000000     0.220600000000     0.992840000000     0.836021   
Cu61     Cu     0.765440000000     0.033800000000     0.008260000000     0.848655   
Cu62     Cu     0.732500000000     0.467090000000     0.009230000000     0.84102    
Cu63     Cu     0.740950000000     0.219520000000     0.990110000000     0.834129   
Cu64     Cu     0.774240000000     0.285930000000     0.991730000000     0.844731   
Cu65     Cu     0.968620000000     0.486230000000     0.677530000000     0.839332   
Cu66     Cu     0.535150000000     0.019540000000     0.678410000000     0.845547   
Cu67     Cu     0.966510000000     0.235100000000     0.657390000000     0.841842   
Cu68     Cu     0.532810000000     0.268410000000     0.657420000000     0.840442   
Cu69     Cu     0.715420000000     0.486210000000     0.673410000000     0.845773   
Cu70     Cu     0.782020000000     0.019470000000     0.676280000000     0.841385   
Cu71     Cu     0.720080000000     0.238360000000     0.655230000000     0.839403   
Cu72     Cu     0.786360000000     0.271840000000     0.656970000000     0.844326   
Cu73     Cu     0.512420000000     0.973200000000     0.345750000000     0.843538   
Cu74     Cu     0.980200000000     0.505920000000     0.343600000000     0.840726   
Cu75     Cu     0.985890000000     0.775500000000     0.325500000000     0.837943   
Cu76     Cu     0.518940000000     0.742200000000     0.326220000000     0.836473   
Cu77     Cu     0.767220000000     0.990060000000     0.341420000000     0.835474   
Cu78     Cu     0.733880000000     0.523880000000     0.341560000000     0.844671   
Cu79     Cu     0.731040000000     0.758360000000     0.323000000000     0.845158   
Cu80     Cu     0.764460000000     0.725420000000     0.323740000000     0.83903    
Cu81     Cu     0.980580000000     0.965500000000     0.007470000000     0.838986   
Cu82     Cu     0.514090000000     0.531660000000     0.011850000000     0.84632    
Cu83     Cu     0.524930000000     0.787000000000     0.990920000000     0.840923   
Cu84     Cu     0.991790000000     0.720610000000     0.992940000000     0.836195   
Cu85     Cu     0.765490000000     0.533520000000     0.007970000000     0.845982   
Cu86     Cu     0.732450000000     0.967340000000     0.008840000000     0.843014   
Cu87     Cu     0.740950000000     0.719550000000     0.990790000000     0.834119   
Cu88     Cu     0.774230000000     0.785950000000     0.992430000000     0.84476    
Cu89     Cu     0.968830000000     0.986410000000     0.677720000000     0.84101    
Cu90     Cu     0.534920000000     0.519360000000     0.678140000000     0.84469    
Cu91     Cu     0.966520000000     0.735180000000     0.657460000000     0.841704   
Cu92     Cu     0.532830000000     0.768420000000     0.657490000000     0.840352   
Cu93     Cu     0.715750000000     0.986390000000     0.673210000000     0.847768   
Cu94     Cu     0.781680000000     0.519240000000     0.676280000000     0.840806   
Cu95     Cu     0.720170000000     0.738450000000     0.655940000000     0.839613   
Cu96     Cu     0.786450000000     0.771830000000     0.657690000000     0.844438   
H1       H      0.211770000000     0.362350000000     0.718570000000     0.0392399  
H2       H      0.282020000000     0.398150000000     0.724290000000     0.0390246  
H3       H      0.309110000000     0.381070000000     0.668830000000     0.0419056  
H4       H      0.191010000000     0.376210000000     0.679980000000     0.0421375  
H5       H      0.193450000000     0.321260000000     0.659850000000     0.042619   
H6       H      0.216610000000     0.357870000000     0.624160000000     0.0397054  
H7       H      0.306720000000     0.435640000000     0.690010000000     0.0425358  
H8       H      0.289210000000     0.395650000000     0.629860000000     0.0402107  
H9       H      0.290090000000     0.151770000000     0.612110000000     0.0391175  
H10      H      0.219880000000     0.117210000000     0.606350000000     0.0390709  
H11      H      0.192830000000     0.072720000000     0.661500000000     0.0418912  
H12      H      0.310840000000     0.186340000000     0.650830000000     0.0420936  
H13      H      0.308490000000     0.128960000000     0.670680000000     0.0425669  
H14      H      0.285250000000     0.142180000000     0.706500000000     0.0397287  
H15      H      0.195130000000     0.129750000000     0.640800000000     0.0427496  
H16      H      0.212580000000     0.107030000000     0.700700000000     0.0399784  
H17      H      0.464350000000     0.356010000000     0.611430000000     0.039008   
H18      H      0.034690000000     0.390990000000     0.609960000000     0.0392101  
H19      H      0.058850000000     0.433840000000     0.667060000000     0.0420288  
H20      H      0.441970000000     0.320220000000     0.648420000000     0.0421348  
H21      H      0.442950000000     0.376780000000     0.669140000000     0.0424772  
H22      H      0.464640000000     0.362630000000     0.706070000000     0.0398966  
H23      H      0.057970000000     0.377600000000     0.645640000000     0.0423261  
H24      H      0.037580000000     0.398370000000     0.704710000000     0.0405506  
H25      H      0.037140000000     0.142600000000     0.724120000000     0.0395002  
H26      H      0.466820000000     0.107030000000     0.725550000000     0.0389254  
H27      H      0.442660000000     0.125620000000     0.668410000000     0.0421248  
H28      H      0.059580000000     0.129240000000     0.687210000000     0.0423058  
H29      H      0.058550000000     0.184750000000     0.666340000000     0.0426498  
H30      H      0.036900000000     0.148830000000     0.629460000000     0.0401038  
H31      H      0.443580000000     0.070290000000     0.689890000000     0.0423777  
H32      H      0.463940000000     0.111460000000     0.630790000000     0.0402082  
H33      H      0.257230000000     0.301950000000     0.832080000000     0.0410488  
H34      H      0.195720000000     0.238380000000     0.838330000000     0.0386456  
H35      H      0.199100000000     0.201900000000     0.784460000000     0.0422729  
H36      H      0.295100000000     0.306300000000     0.861120000000     0.0419862  
H37      H      0.301610000000     0.299210000000     0.786240000000     0.0418196  
H38      H      0.298980000000     0.262190000000     0.815650000000     0.0418797  
H39      H      0.198460000000     0.202940000000     0.864270000000     0.0422585  
H40      H      0.234240000000     0.198600000000     0.810170000000     0.0392784  
H41      H      0.233190000000     0.451300000000     0.849190000000     0.0412449  
H42      H      0.297300000000     0.513220000000     0.852790000000     0.0396264  
H43      H      0.295780000000     0.055460000000     0.803420000000     0.0421943  
H44      H      0.197150000000     0.450640000000     0.878680000000     0.0409189  
H45      H      0.192140000000     0.458360000000     0.802570000000     0.0422355  
H46      H      0.195760000000     0.996260000000     0.831500000000     0.0410416  
H47      H      0.297230000000     0.051310000000     0.881320000000     0.0425514  
H48      H      0.260130000000     0.057150000000     0.830300000000     0.0393442  
H49      H      0.395080000000     0.288190000000     0.935950000000     0.0392106  
H50      H      0.360280000000     0.217440000000     0.937060000000     0.0394425  
H51      H      0.382120000000     0.195550000000     0.993470000000     0.0424391  
H52      H      0.382920000000     0.311180000000     0.973420000000     0.0422594  
H53      H      0.439780000000     0.311680000000     0.991060000000     0.042503   
H54      H      0.405720000000     0.290530000000     0.030100000000     0.0394987  
H55      H      0.325490000000     0.194970000000     0.975160000000     0.0423738  
H56      H      0.369400000000     0.217760000000     0.031470000000     0.0396009  
H57      H      0.147270000000     0.290110000000     0.952560000000     0.0400566  
H58      H      0.110810000000     0.217420000000     0.951660000000     0.0400852  
H59      H      0.132230000000     0.194880000000     0.007950000000     0.042445   
H60      H      0.134500000000     0.311580000000     0.991420000000     0.042359   
H61      H      0.190760000000     0.311130000000     0.009270000000     0.0423007  
H62      H      0.155650000000     0.288120000000     0.046770000000     0.0389286  
H63      H      0.076100000000     0.195390000000     0.989880000000     0.0427438  
H64      H      0.120050000000     0.217530000000     0.045990000000     0.0391497  
H65      H      0.452780000000     0.246270000000     0.818120000000     0.0409383  
H66      H      0.516590000000     0.307740000000     0.813870000000     0.0394452  
H67      H      0.056360000000     0.302500000000     0.862510000000     0.0425965  
H68      H      0.448450000000     0.208960000000     0.787800000000     0.0418445  
H69      H      0.456350000000     0.202180000000     0.863330000000     0.0412083  
H70      H      0.991850000000     0.203520000000     0.832140000000     0.0408982  
H71      H      0.051260000000     0.306340000000     0.784490000000     0.042174   
H72      H      0.055430000000     0.266300000000     0.833800000000     0.0399489  
H73      H      0.388320000000     0.037660000000     0.966100000000     0.0392864  
H74      H      0.352240000000     0.965930000000     0.962410000000     0.0393369  
H75      H      0.371670000000     0.440760000000     0.019680000000     0.042107   
H76      H      0.374930000000     0.058550000000     0.005090000000     0.0420354  
H77      H      0.430430000000     0.057170000000     0.023520000000     0.0423726  
H78      H      0.394500000000     0.533330000000     0.061120000000     0.0393167  
H79      H      0.316370000000     0.442000000000     0.999760000000     0.0425576  
H80      H      0.358480000000     0.462440000000     0.057900000000     0.0394496  
H81      H      0.146670000000     0.035650000000     0.053360000000     0.0400565  
H82      H      0.111250000000     0.962900000000     0.053200000000     0.0399719  
H83      H      0.065930000000     0.441060000000     0.997580000000     0.0425304  
H84      H      0.180110000000     0.057920000000     0.013900000000     0.0423564  
H85      H      0.122910000000     0.057410000000     0.998990000000     0.0426819  
H86      H      0.134920000000     0.535200000000     0.959040000000     0.039116   
H87      H      0.122920000000     0.441610000000     0.013680000000     0.0423619  
H88      H      0.100020000000     0.463820000000     0.958770000000     0.0395487  
H89      H      0.047010000000     0.009640000000     0.840200000000     0.0416521  
H90      H      0.983230000000     0.447610000000     0.836000000000     0.0397843  
H91      H      0.441980000000     0.453870000000     0.881650000000     0.0418691  
H92      H      0.051690000000     0.046150000000     0.808000000000     0.0421159  
H93      H      0.042000000000     0.054730000000     0.882250000000     0.0416472  
H94      H      0.506550000000     0.051530000000     0.849260000000     0.0408394  
H95      H      0.449150000000     0.448040000000     0.804370000000     0.0421958  
H96      H      0.444150000000     0.489650000000     0.850710000000     0.0393221  
H97      H      0.265970000000     0.215110000000     0.484000000000     0.0413333  
H98      H      0.201530000000     0.212530000000     0.480220000000     0.0395463  
H99      H      0.204060000000     0.257620000000     0.527140000000     0.0421549  
H100     H      0.301320000000     0.249340000000     0.452600000000     0.040793   
H101     H      0.307910000000     0.265370000000     0.527840000000     0.0422444  
H102     H      0.303040000000     0.297170000000     0.495870000000     0.0407644  
H103     H      0.199940000000     0.246560000000     0.449650000000     0.0421763  
H104     H      0.238850000000     0.293310000000     0.497320000000     0.0393893  
H105     H      0.214640000000     0.253440000000     0.158520000000     0.0414866  
H106     H      0.214920000000     0.190370000000     0.161460000000     0.0397848  
H107     H      0.262740000000     0.198060000000     0.116030000000     0.0419567  
H108     H      0.244620000000     0.288000000000     0.193970000000     0.0421003  
H109     H      0.267850000000     0.300830000000     0.122110000000     0.0421173  
H110     H      0.297290000000     0.294100000000     0.156190000000     0.0412078  
H111     H      0.248470000000     0.189620000000     0.193710000000     0.042348   
H112     H      0.296250000000     0.231360000000     0.149330000000     0.039285   
H113     H      0.205960000000     0.467490000000     0.512380000000     0.0418053  
H114     H      0.270430000000     0.968550000000     0.518630000000     0.0392726  
H115     H      0.308270000000     0.012000000000     0.468060000000     0.0421253  
H116     H      0.201710000000     0.499470000000     0.544750000000     0.0420479  
H117     H      0.211040000000     0.518520000000     0.471600000000     0.0422712  
H118     H      0.247820000000     0.549970000000     0.503700000000     0.0412067  
H119     H      0.304950000000     0.005240000000     0.547430000000     0.0420291  
H120     H      0.309980000000     0.048480000000     0.496950000000     0.0389194  
H121     H      0.205240000000     0.508420000000     0.180310000000     0.041084   
H122     H      0.206480000000     0.446760000000     0.186610000000     0.0390512  
H123     H      0.250670000000     0.450710000000     0.137780000000     0.042206   
H124     H      0.238100000000     0.045470000000     0.211160000000     0.0421049  
H125     H      0.253790000000     0.052150000000     0.136670000000     0.0418934  
H126     H      0.287170000000     0.049430000000     0.167990000000     0.0414204  
H127     H      0.242280000000     0.447900000000     0.216300000000     0.0418792  
H128     H      0.286530000000     0.985300000000     0.164640000000     0.0390768  
H129     H      0.454100000000     0.214620000000     0.494100000000     0.0411284  
H130     H      0.017440000000     0.216120000000     0.497430000000     0.04       
H131     H      0.058400000000     0.264490000000     0.452620000000     0.0418596  
H132     H      0.448980000000     0.245070000000     0.528290000000     0.0421218  
H133     H      0.459140000000     0.266400000000     0.455340000000     0.0419747  
H134     H      0.494610000000     0.297330000000     0.489270000000     0.0410992  
H135     H      0.051560000000     0.249900000000     0.529770000000     0.0419894  
H136     H      0.056990000000     0.297620000000     0.485190000000     0.0396996  
H137     H      0.366750000000     0.159420000000     0.377570000000     0.0395357  
H138     H      0.402780000000     0.123040000000     0.378200000000     0.0397231  
H139     H      0.376630000000     0.074700000000     0.327290000000     0.0422653  
H140     H      0.376350000000     0.190540000000     0.335730000000     0.0424237  
H141     H      0.318670000000     0.132710000000     0.326610000000     0.041866   
H142     H      0.350100000000     0.141960000000     0.285280000000     0.0391815  
H143     H      0.434230000000     0.132480000000     0.336770000000     0.0424414  
H144     H      0.386140000000     0.106110000000     0.285720000000     0.0395272  
H145     H      0.108090000000     0.400450000000     0.382980000000     0.0396332  
H146     H      0.143350000000     0.364920000000     0.383240000000     0.0396125  
H147     H      0.128500000000     0.327140000000     0.321150000000     0.0423011  
H148     H      0.124250000000     0.439250000000     0.350030000000     0.0424474  
H149     H      0.070450000000     0.385290000000     0.320840000000     0.042316   
H150     H      0.109160000000     0.401510000000     0.287890000000     0.0400715  
H151     H      0.182210000000     0.381010000000     0.350480000000     0.0426614  
H152     H      0.144800000000     0.365920000000     0.288080000000     0.0395556  
H153     H      0.462090000000     0.263070000000     0.163610000000     0.041129   
H154     H      0.463080000000     0.201010000000     0.169720000000     0.0393234  
H155     H      0.008100000000     0.204950000000     0.122080000000     0.0424927  
H156     H      0.494750000000     0.300270000000     0.194300000000     0.0419606  
H157     H      0.511150000000     0.306730000000     0.119480000000     0.0417561  
H158     H      0.044120000000     0.304350000000     0.151880000000     0.0413046  
H159     H      0.998390000000     0.201900000000     0.200150000000     0.0419029  
H160     H      0.043490000000     0.240750000000     0.151040000000     0.0394261  
H161     H      0.009540000000     0.459450000000     0.507770000000     0.0417539  
H162     H      0.446140000000     0.458930000000     0.502990000000     0.0396909  
H163     H      0.451220000000     0.005790000000     0.550150000000     0.0421858  
H164     H      0.045190000000     0.491720000000     0.475030000000     0.0416115  
H165     H      0.053860000000     0.510830000000     0.548860000000     0.0420606  
H166     H      0.049570000000     0.043580000000     0.516870000000     0.0413442  
H167     H      0.447100000000     0.996110000000     0.472240000000     0.0424927  
H168     H      0.485950000000     0.041290000000     0.520130000000     0.0391406  
H169     H      0.354650000000     0.383840000000     0.376680000000     0.0398159  
H170     H      0.389840000000     0.347370000000     0.376770000000     0.0397972  
H171     H      0.373450000000     0.308950000000     0.315150000000     0.0425075  
H172     H      0.370770000000     0.422020000000     0.342780000000     0.0426064  
H173     H      0.316260000000     0.367980000000     0.315220000000     0.0425241  
H174     H      0.354490000000     0.383190000000     0.281630000000     0.0395959  
H175     H      0.427910000000     0.362940000000     0.342760000000     0.0417404  
H176     H      0.389270000000     0.347400000000     0.281620000000     0.039421   
H177     H      0.115780000000     0.147540000000     0.380640000000     0.0389863  
H178     H      0.151470000000     0.111170000000     0.383090000000     0.0393115  
H179     H      0.122060000000     0.058410000000     0.339030000000     0.0422131  
H180     H      0.121880000000     0.174330000000     0.335310000000     0.0422893  
H181     H      0.063850000000     0.115970000000     0.336210000000     0.0428607  
H182     H      0.091330000000     0.121490000000     0.291800000000     0.0393114  
H183     H      0.179850000000     0.116460000000     0.339590000000     0.0418789  
H184     H      0.128510000000     0.085440000000     0.293750000000     0.0399846  
H185     H      0.038440000000     0.980250000000     0.190630000000     0.0411253  
H186     H      0.538430000000     0.043450000000     0.195800000000     0.0386909  
H187     H      0.500570000000     0.543400000000     0.140440000000     0.0426131  
H188     H      0.000480000000     0.941780000000     0.213910000000     0.0413214  
H189     H      0.997630000000     0.942330000000     0.136140000000     0.0409387  
H190     H      0.960650000000     0.441630000000     0.162250000000     0.0416032  
H191     H      0.501920000000     0.542090000000     0.218470000000     0.0420993  
H192     H      0.462020000000     0.506100000000     0.163530000000     0.039748   
H193     H      0.212140000000     0.862710000000     0.719080000000     0.0392552  
H194     H      0.282370000000     0.898520000000     0.724780000000     0.0390644  
H195     H      0.309380000000     0.881150000000     0.669560000000     0.0418942  
H196     H      0.191350000000     0.876460000000     0.680390000000     0.0421544  
H197     H      0.193730000000     0.821450000000     0.660500000000     0.0426383  
H198     H      0.216930000000     0.857960000000     0.624690000000     0.0397362  
H199     H      0.307070000000     0.935870000000     0.690310000000     0.0425847  
H200     H      0.289580000000     0.895660000000     0.630400000000     0.0402059  
H201     H      0.289890000000     0.651670000000     0.612640000000     0.0391224  
H202     H      0.219660000000     0.617210000000     0.606950000000     0.0391233  
H203     H      0.192610000000     0.572660000000     0.662030000000     0.0418968  
H204     H      0.310710000000     0.686190000000     0.651410000000     0.0420897  
H205     H      0.308270000000     0.628750000000     0.671140000000     0.042613   
H206     H      0.285080000000     0.641970000000     0.707020000000     0.0397762  
H207     H      0.195000000000     0.629780000000     0.641500000000     0.0428064  
H208     H      0.212430000000     0.606920000000     0.701280000000     0.0399958  
H209     H      0.464550000000     0.856130000000     0.611440000000     0.0390477  
H210     H      0.034890000000     0.891040000000     0.610000000000     0.039478   
H211     H      0.059040000000     0.933980000000     0.666990000000     0.0419475  
H212     H      0.442120000000     0.820390000000     0.648460000000     0.0421214  
H213     H      0.443150000000     0.876990000000     0.669060000000     0.0425113  
H214     H      0.464790000000     0.862860000000     0.706060000000     0.0398915  
H215     H      0.058120000000     0.877670000000     0.645780000000     0.042573   
H216     H      0.037770000000     0.898590000000     0.704730000000     0.0404014  
H217     H      0.036980000000     0.642330000000     0.723810000000     0.0395176  
H218     H      0.466610000000     0.606760000000     0.725220000000     0.0389534  
H219     H      0.442530000000     0.625630000000     0.668280000000     0.0421197  
H220     H      0.059390000000     0.629060000000     0.686750000000     0.0423041  
H221     H      0.058420000000     0.684660000000     0.666210000000     0.04279    
H222     H      0.036730000000     0.648860000000     0.629180000000     0.0402285  
H223     H      0.443390000000     0.570180000000     0.689360000000     0.0423926  
H224     H      0.463780000000     0.611560000000     0.630500000000     0.0402024  
H225     H      0.257320000000     0.801980000000     0.832740000000     0.0410477  
H226     H      0.195770000000     0.738460000000     0.838980000000     0.0386296  
H227     H      0.199130000000     0.701940000000     0.785150000000     0.0423074  
H228     H      0.295160000000     0.806290000000     0.861820000000     0.0419743  
H229     H      0.301700000000     0.799160000000     0.786960000000     0.0418329  
H230     H      0.299000000000     0.762130000000     0.816410000000     0.0418878  
H231     H      0.198440000000     0.703000000000     0.864950000000     0.0422414  
H232     H      0.234220000000     0.698600000000     0.810900000000     0.0393355  
H233     H      0.232590000000     0.951930000000     0.850790000000     0.0411979  
H234     H      0.297400000000     0.014820000000     0.854440000000     0.0393505  
H235     H      0.295760000000     0.554980000000     0.803720000000     0.0421914  
H236     H      0.196410000000     0.952450000000     0.878610000000     0.0407198  
H237     H      0.192260000000     0.958760000000     0.802300000000     0.0421907  
H238     H      0.196070000000     0.495570000000     0.832730000000     0.0410249  
H239     H      0.298520000000     0.549540000000     0.881550000000     0.0423962  
H240     H      0.260350000000     0.556270000000     0.831670000000     0.0396109  
H241     H      0.394950000000     0.788260000000     0.936410000000     0.0391712  
H242     H      0.360150000000     0.717480000000     0.937480000000     0.0394274  
H243     H      0.382180000000     0.695580000000     0.993680000000     0.0424403  
H244     H      0.382910000000     0.811220000000     0.974060000000     0.0422247  
H245     H      0.439830000000     0.811700000000     0.991300000000     0.0425028  
H246     H      0.405920000000     0.790560000000     0.030500000000     0.0394985  
H247     H      0.325480000000     0.695010000000     0.975730000000     0.0423703  
H248     H      0.369570000000     0.717770000000     0.031840000000     0.0396198  
H249     H      0.147450000000     0.790100000000     0.952880000000     0.0400498  
H250     H      0.111000000000     0.717440000000     0.951980000000     0.0400813  
H251     H      0.132210000000     0.694890000000     0.008490000000     0.0424399  
H252     H      0.134550000000     0.811600000000     0.991570000000     0.0423409  
H253     H      0.190730000000     0.811150000000     0.009820000000     0.0422487  
H254     H      0.155470000000     0.788120000000     0.047160000000     0.0389166  
H255     H      0.076150000000     0.695400000000     0.990040000000     0.0427489  
H256     H      0.119900000000     0.717540000000     0.046370000000     0.0391534  
H257     H      0.452820000000     0.746300000000     0.818190000000     0.0409606  
H258     H      0.516650000000     0.807760000000     0.813940000000     0.0394469  
H259     H      0.056400000000     0.802500000000     0.862590000000     0.0425644  
H260     H      0.448480000000     0.708980000000     0.787890000000     0.0418607  
H261     H      0.456360000000     0.702210000000     0.863430000000     0.0411851  
H262     H      0.991870000000     0.703530000000     0.832240000000     0.0409053  
H263     H      0.051320000000     0.806330000000     0.784570000000     0.042183   
H264     H      0.055460000000     0.766300000000     0.833900000000     0.0399319  
H265     H      0.388500000000     0.537180000000     0.966740000000     0.0393976  
H266     H      0.352410000000     0.465440000000     0.963400000000     0.0393681  
H267     H      0.371620000000     0.941160000000     0.017820000000     0.0419709  
H268     H      0.375040000000     0.558220000000     0.005440000000     0.0420053  
H269     H      0.430580000000     0.557010000000     0.024890000000     0.0424258  
H270     H      0.395180000000     0.033870000000     0.060640000000     0.0390241  
H271     H      0.316260000000     0.942340000000     0.998810000000     0.0426062  
H272     H      0.358710000000     0.962160000000     0.057070000000     0.0392152  
H273     H      0.146600000000     0.535730000000     0.052820000000     0.0400404  
H274     H      0.110740000000     0.463410000000     0.052810000000     0.0402721  
H275     H      0.065900000000     0.941350000000     0.999000000000     0.0425392  
H276     H      0.180200000000     0.557770000000     0.013480000000     0.0423498  
H277     H      0.123010000000     0.557250000000     0.998010000000     0.0426469  
H278     H      0.134610000000     0.035440000000     0.959680000000     0.039157   
H279     H      0.122970000000     0.941900000000     0.012680000000     0.0423015  
H280     H      0.098830000000     0.963520000000     0.958980000000     0.0392574  
H281     H      0.046920000000     0.509640000000     0.840260000000     0.0416672  
H282     H      0.983130000000     0.947270000000     0.835390000000     0.0394527  
H283     H      0.442480000000     0.953720000000     0.881660000000     0.0418926  
H284     H      0.051590000000     0.546060000000     0.807910000000     0.0421378  
H285     H      0.041790000000     0.554760000000     0.882120000000     0.0416891  
H286     H      0.506400000000     0.551500000000     0.849010000000     0.0408085  
H287     H      0.449080000000     0.948520000000     0.804550000000     0.0422672  
H288     H      0.443900000000     0.989450000000     0.851490000000     0.0389824  
H289     H      0.266290000000     0.715340000000     0.484780000000     0.0413189  
H290     H      0.201740000000     0.712520000000     0.481050000000     0.039523   
H291     H      0.204140000000     0.757640000000     0.527860000000     0.0421463  
H292     H      0.301570000000     0.749610000000     0.453350000000     0.0407897  
H293     H      0.308140000000     0.765690000000     0.528570000000     0.0422351  
H294     H      0.303130000000     0.797390000000     0.496570000000     0.0407155  
H295     H      0.199980000000     0.746430000000     0.450420000000     0.0421499  
H296     H      0.238880000000     0.793330000000     0.497980000000     0.0393784  
H297     H      0.214560000000     0.753230000000     0.159350000000     0.041516   
H298     H      0.215150000000     0.690300000000     0.162340000000     0.039764   
H299     H      0.262910000000     0.698160000000     0.116710000000     0.0419076  
H300     H      0.244520000000     0.787890000000     0.194730000000     0.042098   
H301     H      0.267600000000     0.800730000000     0.122820000000     0.0421044  
H302     H      0.297210000000     0.794190000000     0.156810000000     0.0412291  
H303     H      0.248890000000     0.689790000000     0.194470000000     0.0423329  
H304     H      0.296440000000     0.731560000000     0.149890000000     0.0392445  
H305     H      0.205870000000     0.967430000000     0.513560000000     0.0414947  
H306     H      0.270020000000     0.468490000000     0.518110000000     0.0393113  
H307     H      0.307990000000     0.512450000000     0.468050000000     0.0421405  
H308     H      0.202860000000     0.000700000000     0.544790000000     0.0416963  
H309     H      0.211180000000     0.017630000000     0.471370000000     0.0421516  
H310     H      0.248040000000     0.050210000000     0.502370000000     0.0409246  
H311     H      0.304370000000     0.504920000000     0.547370000000     0.0421871  
H312     H      0.309550000000     0.548610000000     0.497450000000     0.0389075  
H313     H      0.205300000000     0.007800000000     0.181080000000     0.0411065  
H314     H      0.206610000000     0.945810000000     0.188070000000     0.0386132  
H315     H      0.249240000000     0.949740000000     0.137550000000     0.0423216  
H316     H      0.237690000000     0.545860000000     0.210920000000     0.0421295  
H317     H      0.254290000000     0.552830000000     0.136560000000     0.041882   
H318     H      0.287250000000     0.550030000000     0.168560000000     0.0412952  
H319     H      0.243710000000     0.948160000000     0.216090000000     0.0420086  
H320     H      0.286590000000     0.486350000000     0.166350000000     0.0394228  
H321     H      0.454050000000     0.714770000000     0.494200000000     0.0411609  
H322     H      0.017290000000     0.716050000000     0.497540000000     0.0400011  
H323     H      0.058320000000     0.764320000000     0.452670000000     0.0418409  
H324     H      0.449060000000     0.745310000000     0.528370000000     0.0421272  
H325     H      0.459250000000     0.766590000000     0.455390000000     0.041906   
H326     H      0.494780000000     0.797470000000     0.489300000000     0.0410428  
H327     H      0.051480000000     0.749800000000     0.529850000000     0.0419773  
H328     H      0.057050000000     0.797550000000     0.485210000000     0.0396734  
H329     H      0.366640000000     0.659830000000     0.377690000000     0.0395052  
H330     H      0.402360000000     0.623150000000     0.378160000000     0.0397612  
H331     H      0.376160000000     0.574920000000     0.327080000000     0.0423112  
H332     H      0.376290000000     0.690950000000     0.335840000000     0.0423755  
H333     H      0.318440000000     0.633170000000     0.326910000000     0.0418776  
H334     H      0.349730000000     0.642380000000     0.285450000000     0.0391861  
H335     H      0.433810000000     0.632530000000     0.336740000000     0.0424426  
H336     H      0.385710000000     0.606460000000     0.285640000000     0.0395172  
H337     H      0.108510000000     0.900130000000     0.383120000000     0.0396849  
H338     H      0.143720000000     0.864540000000     0.383220000000     0.039552   
H339     H      0.128560000000     0.826720000000     0.321160000000     0.0423304  
H340     H      0.124710000000     0.939000000000     0.350310000000     0.0425255  
H341     H      0.070880000000     0.885240000000     0.320990000000     0.0423961  
H342     H      0.109580000000     0.901360000000     0.288040000000     0.0401183  
H343     H      0.182480000000     0.880570000000     0.350290000000     0.0425962  
H344     H      0.144930000000     0.865480000000     0.288050000000     0.039565   
H345     H      0.462190000000     0.763200000000     0.163630000000     0.041105   
H346     H      0.463020000000     0.701070000000     0.169720000000     0.0393418  
H347     H      0.008070000000     0.704920000000     0.122170000000     0.0424874  
H348     H      0.494880000000     0.800350000000     0.194360000000     0.0419598  
H349     H      0.511350000000     0.806810000000     0.119560000000     0.041795   
H350     H      0.044240000000     0.804330000000     0.152010000000     0.0412933  
H351     H      0.998240000000     0.701830000000     0.200210000000     0.0418923  
H352     H      0.043460000000     0.740670000000     0.151190000000     0.0394196  
H353     H      0.010700000000     0.961080000000     0.505920000000     0.0415983  
H354     H      0.446450000000     0.960420000000     0.501850000000     0.0394387  
H355     H      0.450930000000     0.505100000000     0.549490000000     0.0421553  
H356     H      0.046320000000     0.995010000000     0.474570000000     0.0413157  
H357     H      0.054230000000     0.011720000000     0.549010000000     0.0420441  
H358     H      0.048950000000     0.541960000000     0.515680000000     0.0414072  
H359     H      0.445920000000     0.493290000000     0.471650000000     0.042371   
H360     H      0.485560000000     0.539960000000     0.518690000000     0.0392885  
H361     H      0.353780000000     0.884060000000     0.377880000000     0.0397751  
H362     H      0.389030000000     0.847830000000     0.378150000000     0.0398211  
H363     H      0.373510000000     0.809770000000     0.316200000000     0.042474   
H364     H      0.369910000000     0.922340000000     0.344120000000     0.0425665  
H365     H      0.315640000000     0.868140000000     0.316210000000     0.0425491  
H366     H      0.354040000000     0.883730000000     0.282820000000     0.039656   
H367     H      0.427460000000     0.863650000000     0.344670000000     0.041874   
H368     H      0.389340000000     0.848430000000     0.282990000000     0.0394817  
H369     H      0.116390000000     0.646960000000     0.381870000000     0.0389798  
H370     H      0.152540000000     0.611140000000     0.384230000000     0.0392367  
H371     H      0.123010000000     0.558130000000     0.340690000000     0.0421147  
H372     H      0.122210000000     0.673740000000     0.336610000000     0.0422876  
H373     H      0.064430000000     0.615290000000     0.337480000000     0.0428721  
H374     H      0.091910000000     0.620870000000     0.293050000000     0.0393739  
H375     H      0.180750000000     0.616420000000     0.340560000000     0.0418137  
H376     H      0.129280000000     0.584800000000     0.295130000000     0.0400083  
H377     H      0.039900000000     0.480540000000     0.189220000000     0.0409661  
H378     H      0.539780000000     0.543200000000     0.193680000000     0.0391077  
H379     H      0.501670000000     0.044210000000     0.140610000000     0.0426942  
H380     H      0.002630000000     0.442270000000     0.213700000000     0.0415037  
H381     H      0.997850000000     0.441960000000     0.136010000000     0.0409734  
H382     H      0.959870000000     0.941900000000     0.161090000000     0.0417631  
H383     H      0.499110000000     0.041100000000     0.218160000000     0.0423129  
H384     H      0.461540000000     0.007010000000     0.161460000000     0.0392462  
H385     H      0.711770000000     0.362350000000     0.718570000000     0.0392336  
H386     H      0.782020000000     0.398150000000     0.724290000000     0.0390197  
H387     H      0.809110000000     0.381070000000     0.668830000000     0.041899   
H388     H      0.691010000000     0.376210000000     0.679980000000     0.0421305  
H389     H      0.693450000000     0.321260000000     0.659850000000     0.0426122  
H390     H      0.716610000000     0.357870000000     0.624160000000     0.0397016  
H391     H      0.806720000000     0.435640000000     0.690010000000     0.0425278  
H392     H      0.789210000000     0.395650000000     0.629860000000     0.0402057  
H393     H      0.790090000000     0.151770000000     0.612110000000     0.0391108  
H394     H      0.719880000000     0.117210000000     0.606350000000     0.0390661  
H395     H      0.692830000000     0.072720000000     0.661500000000     0.0418883  
H396     H      0.810840000000     0.186340000000     0.650830000000     0.042086   
H397     H      0.808480000000     0.128960000000     0.670680000000     0.0425815  
H398     H      0.785250000000     0.142180000000     0.706500000000     0.0397361  
H399     H      0.695130000000     0.129750000000     0.640800000000     0.0427421  
H400     H      0.712580000000     0.107030000000     0.700700000000     0.0399781  
H401     H      0.964350000000     0.356010000000     0.611430000000     0.0385499  
H402     H      0.534690000000     0.390990000000     0.609960000000     0.0390543  
H403     H      0.558850000000     0.433840000000     0.667060000000     0.0419687  
H404     H      0.941970000000     0.320220000000     0.648420000000     0.0420878  
H405     H      0.942950000000     0.376780000000     0.669140000000     0.0426132  
H406     H      0.964640000000     0.362630000000     0.706070000000     0.0397664  
H407     H      0.557970000000     0.377600000000     0.645640000000     0.0424767  
H408     H      0.537580000000     0.398370000000     0.704710000000     0.040082   
H409     H      0.537140000000     0.142600000000     0.724120000000     0.0391645  
H410     H      0.966820000000     0.107030000000     0.725550000000     0.0386142  
H411     H      0.942660000000     0.125620000000     0.668410000000     0.0422074  
H412     H      0.559580000000     0.129240000000     0.687210000000     0.042311   
H413     H      0.558550000000     0.184750000000     0.666340000000     0.0426431  
H414     H      0.536900000000     0.148830000000     0.629460000000     0.0397961  
H415     H      0.943580000000     0.070290000000     0.689890000000     0.0424513  
H416     H      0.963940000000     0.111460000000     0.630790000000     0.0399287  
H417     H      0.757230000000     0.301950000000     0.832080000000     0.0410481  
H418     H      0.695720000000     0.238380000000     0.838330000000     0.0386178  
H419     H      0.699100000000     0.201900000000     0.784460000000     0.042243   
H420     H      0.795100000000     0.306300000000     0.861120000000     0.0419767  
H421     H      0.801610000000     0.299210000000     0.786240000000     0.0417947  
H422     H      0.798980000000     0.262190000000     0.815650000000     0.0418524  
H423     H      0.698460000000     0.202940000000     0.864270000000     0.0422375  
H424     H      0.734240000000     0.198600000000     0.810170000000     0.0392681  
H425     H      0.733190000000     0.451300000000     0.849190000000     0.0412395  
H426     H      0.797300000000     0.513220000000     0.852790000000     0.0395968  
H427     H      0.795780000000     0.055460000000     0.803420000000     0.0421738  
H428     H      0.697150000000     0.450640000000     0.878680000000     0.0408963  
H429     H      0.692140000000     0.458360000000     0.802570000000     0.0422066  
H430     H      0.695760000000     0.996260000000     0.831500000000     0.0410158  
H431     H      0.797230000000     0.051310000000     0.881320000000     0.0425286  
H432     H      0.760130000000     0.057150000000     0.830300000000     0.0393401  
H433     H      0.895080000000     0.288190000000     0.935950000000     0.0390792  
H434     H      0.860280000000     0.217440000000     0.937060000000     0.0393956  
H435     H      0.882120000000     0.195550000000     0.993470000000     0.0424015  
H436     H      0.882920000000     0.311180000000     0.973420000000     0.0421918  
H437     H      0.939780000000     0.311680000000     0.991060000000     0.0422081  
H438     H      0.905720000000     0.290530000000     0.030100000000     0.0393566  
H439     H      0.825490000000     0.194970000000     0.975160000000     0.0423667  
H440     H      0.869400000000     0.217760000000     0.031470000000     0.0395493  
H441     H      0.647270000000     0.290110000000     0.952560000000     0.0400341  
H442     H      0.610810000000     0.217420000000     0.951660000000     0.0399704  
H443     H      0.632230000000     0.194880000000     0.007950000000     0.0423867  
H444     H      0.634500000000     0.311580000000     0.991420000000     0.0423416  
H445     H      0.690760000000     0.311130000000     0.009270000000     0.0422987  
H446     H      0.655650000000     0.288120000000     0.046770000000     0.0388981  
H447     H      0.576100000000     0.195390000000     0.989880000000     0.0424791  
H448     H      0.620050000000     0.217530000000     0.045990000000     0.0390492  
H449     H      0.952780000000     0.246270000000     0.818120000000     0.0405638  
H450     H      0.016590000000     0.307740000000     0.813870000000     0.0397855  
H451     H      0.556360000000     0.302500000000     0.862510000000     0.0425035  
H452     H      0.948450000000     0.208960000000     0.787800000000     0.0417499  
H453     H      0.956350000000     0.202180000000     0.863330000000     0.0412864  
H454     H      0.491860000000     0.203520000000     0.832140000000     0.0411887  
H455     H      0.551260000000     0.306340000000     0.784490000000     0.0422609  
H456     H      0.555430000000     0.266300000000     0.833800000000     0.0396219  
H457     H      0.888320000000     0.037660000000     0.966100000000     0.0391799  
H458     H      0.852240000000     0.965930000000     0.962410000000     0.0393108  
H459     H      0.871670000000     0.440760000000     0.019680000000     0.0420901  
H460     H      0.874930000000     0.058550000000     0.005090000000     0.0419768  
H461     H      0.930430000000     0.057170000000     0.023520000000     0.0420914  
H462     H      0.894500000000     0.533330000000     0.061120000000     0.0391707  
H463     H      0.816370000000     0.442000000000     0.999760000000     0.0425515  
H464     H      0.858480000000     0.462440000000     0.057900000000     0.0394117  
H465     H      0.646670000000     0.035650000000     0.053360000000     0.0400005  
H466     H      0.611250000000     0.962900000000     0.053200000000     0.0398202  
H467     H      0.565930000000     0.441060000000     0.997580000000     0.0422132  
H468     H      0.680110000000     0.057920000000     0.013900000000     0.0423531  
H469     H      0.622910000000     0.057410000000     0.998990000000     0.042649   
H470     H      0.634910000000     0.535200000000     0.959040000000     0.0390854  
H471     H      0.622920000000     0.441610000000     0.013680000000     0.0422908  
H472     H      0.600020000000     0.463820000000     0.958770000000     0.0394085  
H473     H      0.547020000000     0.009640000000     0.840200000000     0.0412449  
H474     H      0.483240000000     0.447610000000     0.836000000000     0.0400585  
H475     H      0.941980000000     0.453870000000     0.881650000000     0.0417878  
H476     H      0.551690000000     0.046150000000     0.808000000000     0.0420288  
H477     H      0.542000000000     0.054730000000     0.882250000000     0.0417243  
H478     H      0.006550000000     0.051530000000     0.849260000000     0.0411856  
H479     H      0.949150000000     0.448040000000     0.804370000000     0.042285   
H480     H      0.944150000000     0.489650000000     0.850710000000     0.0389758  
H481     H      0.765970000000     0.215110000000     0.484000000000     0.0413195  
H482     H      0.701530000000     0.212530000000     0.480220000000     0.039516   
H483     H      0.704060000000     0.257620000000     0.527140000000     0.0421329  
H484     H      0.801330000000     0.249340000000     0.452600000000     0.0407545  
H485     H      0.807910000000     0.265370000000     0.527840000000     0.0422221  
H486     H      0.803040000000     0.297170000000     0.495870000000     0.0407416  
H487     H      0.699940000000     0.246560000000     0.449650000000     0.0421484  
H488     H      0.738850000000     0.293310000000     0.497320000000     0.0393842  
H489     H      0.714640000000     0.253440000000     0.158520000000     0.0414556  
H490     H      0.714920000000     0.190370000000     0.161460000000     0.0397551  
H491     H      0.762750000000     0.198060000000     0.116030000000     0.0419327  
H492     H      0.744620000000     0.288000000000     0.193970000000     0.0420842  
H493     H      0.767850000000     0.300830000000     0.122110000000     0.0421051  
H494     H      0.797290000000     0.294100000000     0.156190000000     0.0411771  
H495     H      0.748470000000     0.189620000000     0.193710000000     0.0423361  
H496     H      0.796250000000     0.231360000000     0.149330000000     0.0392501  
H497     H      0.705960000000     0.467490000000     0.512380000000     0.0417818  
H498     H      0.770430000000     0.968550000000     0.518630000000     0.0392697  
H499     H      0.808270000000     0.012000000000     0.468060000000     0.0420946  
H500     H      0.701710000000     0.499470000000     0.544750000000     0.0420274  
H501     H      0.711040000000     0.518520000000     0.471600000000     0.042256   
H502     H      0.747820000000     0.549970000000     0.503700000000     0.0412022  
H503     H      0.804950000000     0.005240000000     0.547430000000     0.0420143  
H504     H      0.809980000000     0.048480000000     0.496950000000     0.0388819  
H505     H      0.705240000000     0.508420000000     0.180310000000     0.0410495  
H506     H      0.706480000000     0.446760000000     0.186610000000     0.0390179  
H507     H      0.750670000000     0.450710000000     0.137780000000     0.042191   
H508     H      0.738100000000     0.045470000000     0.211160000000     0.0420906  
H509     H      0.753790000000     0.052150000000     0.136670000000     0.0418763  
H510     H      0.787170000000     0.049430000000     0.167990000000     0.0414008  
H511     H      0.742280000000     0.447900000000     0.216300000000     0.0418641  
H512     H      0.786530000000     0.985300000000     0.164640000000     0.0390573  
H513     H      0.954100000000     0.214620000000     0.494100000000     0.0407391  
H514     H      0.517440000000     0.216120000000     0.497430000000     0.0396741  
H515     H      0.558400000000     0.264490000000     0.452620000000     0.0417837  
H516     H      0.948980000000     0.245070000000     0.528290000000     0.042055   
H517     H      0.959140000000     0.266400000000     0.455340000000     0.0420445  
H518     H      0.994610000000     0.297330000000     0.489270000000     0.0408056  
H519     H      0.551560000000     0.249900000000     0.529770000000     0.0420703  
H520     H      0.556990000000     0.297620000000     0.485190000000     0.0393686  
H521     H      0.866750000000     0.159420000000     0.377570000000     0.0395031  
H522     H      0.902780000000     0.123040000000     0.378200000000     0.039575   
H523     H      0.876630000000     0.074700000000     0.327290000000     0.0421963  
H524     H      0.876350000000     0.190540000000     0.335730000000     0.0424134  
H525     H      0.818670000000     0.132710000000     0.326610000000     0.0418369  
H526     H      0.850100000000     0.141960000000     0.285280000000     0.0391312  
H527     H      0.934230000000     0.132480000000     0.336770000000     0.0421641  
H528     H      0.886140000000     0.106110000000     0.285720000000     0.0394298  
H529     H      0.608090000000     0.400450000000     0.382980000000     0.0395064  
H530     H      0.643350000000     0.364920000000     0.383240000000     0.0395691  
H531     H      0.628500000000     0.327140000000     0.321150000000     0.0423045  
H532     H      0.624250000000     0.439250000000     0.350030000000     0.0423934  
H533     H      0.570450000000     0.385290000000     0.320840000000     0.0420503  
H534     H      0.609160000000     0.401510000000     0.287890000000     0.0399564  
H535     H      0.682210000000     0.381010000000     0.350480000000     0.0426448  
H536     H      0.644800000000     0.365920000000     0.288080000000     0.0395459  
H537     H      0.962090000000     0.263070000000     0.163610000000     0.0412557  
H538     H      0.963080000000     0.201010000000     0.169720000000     0.0394685  
H539     H      0.508100000000     0.204950000000     0.122080000000     0.0421771  
H540     H      0.994750000000     0.300270000000     0.194300000000     0.0418796  
H541     H      0.011150000000     0.306730000000     0.119480000000     0.0418911  
H542     H      0.544120000000     0.304350000000     0.151880000000     0.0414305  
H543     H      0.498390000000     0.201900000000     0.200150000000     0.0421729  
H544     H      0.543490000000     0.240750000000     0.151040000000     0.0395763  
H545     H      0.509540000000     0.459450000000     0.507770000000     0.0414258  
H546     H      0.946140000000     0.458930000000     0.502990000000     0.039367   
H547     H      0.951220000000     0.005790000000     0.550150000000     0.0422691  
H548     H      0.545190000000     0.491720000000     0.475030000000     0.0416903  
H549     H      0.553870000000     0.510830000000     0.548860000000     0.041966   
H550     H      0.549570000000     0.043580000000     0.516870000000     0.0409522  
H551     H      0.947100000000     0.996110000000     0.472240000000     0.0423992  
H552     H      0.985950000000     0.041290000000     0.520130000000     0.0388394  
H553     H      0.854650000000     0.383840000000     0.376680000000     0.0397977  
H554     H      0.889840000000     0.347370000000     0.376770000000     0.0397009  
H555     H      0.873450000000     0.308950000000     0.315150000000     0.0424627  
H556     H      0.870770000000     0.422020000000     0.342780000000     0.0425789  
H557     H      0.816260000000     0.367980000000     0.315220000000     0.0425148  
H558     H      0.854490000000     0.383190000000     0.281630000000     0.0395385  
H559     H      0.927920000000     0.362940000000     0.342760000000     0.0414781  
H560     H      0.889270000000     0.347400000000     0.281620000000     0.0392941  
H561     H      0.615780000000     0.147540000000     0.380640000000     0.0388744  
H562     H      0.651470000000     0.111170000000     0.383090000000     0.0392754  
H563     H      0.622060000000     0.058410000000     0.339030000000     0.0421881  
H564     H      0.621880000000     0.174330000000     0.335310000000     0.0421895  
H565     H      0.563850000000     0.115970000000     0.336210000000     0.042522   
H566     H      0.591330000000     0.121490000000     0.291800000000     0.0391022  
H567     H      0.679850000000     0.116460000000     0.339590000000     0.0418718  
H568     H      0.628510000000     0.085440000000     0.293750000000     0.0399271  
H569     H      0.538440000000     0.980250000000     0.190630000000     0.0411952  
H570     H      0.038430000000     0.043450000000     0.195800000000     0.0378909  
H571     H      0.000570000000     0.543400000000     0.140440000000     0.0449806  
H572     H      0.500480000000     0.941780000000     0.213910000000     0.0409745  
H573     H      0.497630000000     0.942330000000     0.136140000000     0.0410549  
H574     H      0.460650000000     0.441630000000     0.162250000000     0.0414199  
H575     H      0.001930000000     0.542090000000     0.218470000000     0.0423143  
H576     H      0.962020000000     0.506100000000     0.163530000000     0.0403501  
H577     H      0.712140000000     0.862710000000     0.719080000000     0.0392489  
H578     H      0.782370000000     0.898520000000     0.724780000000     0.0390242  
H579     H      0.809380000000     0.881150000000     0.669560000000     0.0418965  
H580     H      0.691350000000     0.876460000000     0.680390000000     0.0421509  
H581     H      0.693730000000     0.821450000000     0.660500000000     0.0426361  
H582     H      0.716930000000     0.857960000000     0.624690000000     0.0397348  
H583     H      0.807070000000     0.935870000000     0.690310000000     0.0425387  
H584     H      0.789580000000     0.895660000000     0.630400000000     0.0402092  
H585     H      0.789890000000     0.651670000000     0.612640000000     0.0391136  
H586     H      0.719660000000     0.617210000000     0.606950000000     0.039116   
H587     H      0.692610000000     0.572660000000     0.662030000000     0.0418945  
H588     H      0.810710000000     0.686190000000     0.651410000000     0.0420696  
H589     H      0.808270000000     0.628750000000     0.671140000000     0.0426052  
H590     H      0.785080000000     0.641970000000     0.707020000000     0.0397711  
H591     H      0.695000000000     0.629780000000     0.641500000000     0.0427958  
H592     H      0.712430000000     0.606920000000     0.701280000000     0.0399948  
H593     H      0.964550000000     0.856130000000     0.611440000000     0.0388409  
H594     H      0.534890000000     0.891040000000     0.610000000000     0.039038   
H595     H      0.559030000000     0.933980000000     0.666990000000     0.0419843  
H596     H      0.942120000000     0.820390000000     0.648460000000     0.0423531  
H597     H      0.943150000000     0.876990000000     0.669060000000     0.0425686  
H598     H      0.964790000000     0.862860000000     0.706060000000     0.0396209  
H599     H      0.558120000000     0.877670000000     0.645780000000     0.0424204  
H600     H      0.537770000000     0.898590000000     0.704730000000     0.0400862  
H601     H      0.536980000000     0.642330000000     0.723810000000     0.0391673  
H602     H      0.966610000000     0.606760000000     0.725220000000     0.0386592  
H603     H      0.942530000000     0.625630000000     0.668280000000     0.0423522  
H604     H      0.559390000000     0.629060000000     0.686750000000     0.042328   
H605     H      0.558420000000     0.684660000000     0.666210000000     0.0426396  
H606     H      0.536730000000     0.648860000000     0.629180000000     0.0398138  
H607     H      0.943390000000     0.570180000000     0.689360000000     0.0424471  
H608     H      0.963780000000     0.611560000000     0.630500000000     0.0400251  
H609     H      0.757320000000     0.801980000000     0.832740000000     0.0410556  
H610     H      0.695770000000     0.738460000000     0.838980000000     0.0386264  
H611     H      0.699130000000     0.701940000000     0.785150000000     0.0422836  
H612     H      0.795160000000     0.806290000000     0.861820000000     0.0419617  
H613     H      0.801700000000     0.799160000000     0.786960000000     0.0418072  
H614     H      0.799000000000     0.762130000000     0.816410000000     0.0418564  
H615     H      0.698440000000     0.703000000000     0.864950000000     0.042238   
H616     H      0.734220000000     0.698600000000     0.810900000000     0.0393252  
H617     H      0.732590000000     0.951930000000     0.850790000000     0.0411905  
H618     H      0.797400000000     0.014820000000     0.854440000000     0.0393245  
H619     H      0.795760000000     0.554980000000     0.803720000000     0.0421765  
H620     H      0.696410000000     0.952450000000     0.878610000000     0.0406956  
H621     H      0.692270000000     0.958760000000     0.802300000000     0.0421719  
H622     H      0.696070000000     0.495570000000     0.832730000000     0.0409969  
H623     H      0.798520000000     0.549540000000     0.881550000000     0.0423688  
H624     H      0.760360000000     0.556270000000     0.831670000000     0.0396155  
H625     H      0.894950000000     0.788260000000     0.936410000000     0.0390395  
H626     H      0.860150000000     0.717480000000     0.937480000000     0.0393807  
H627     H      0.882180000000     0.695580000000     0.993680000000     0.0424012  
H628     H      0.882910000000     0.811220000000     0.974060000000     0.0421572  
H629     H      0.939830000000     0.811700000000     0.991300000000     0.0422061  
H630     H      0.905920000000     0.790560000000     0.030500000000     0.0393548  
H631     H      0.825490000000     0.695010000000     0.975730000000     0.0423604  
H632     H      0.869580000000     0.717770000000     0.031840000000     0.0395731  
H633     H      0.647450000000     0.790100000000     0.952880000000     0.0400303  
H634     H      0.611000000000     0.717440000000     0.951980000000     0.039968   
H635     H      0.632210000000     0.694890000000     0.008490000000     0.0423916  
H636     H      0.634550000000     0.811600000000     0.991570000000     0.0423286  
H637     H      0.690730000000     0.811150000000     0.009820000000     0.0422557  
H638     H      0.655470000000     0.788120000000     0.047160000000     0.0388908  
H639     H      0.576150000000     0.695400000000     0.990040000000     0.0424893  
H640     H      0.619900000000     0.717540000000     0.046370000000     0.039061   
H641     H      0.952820000000     0.746300000000     0.818190000000     0.0405802  
H642     H      0.016650000000     0.807760000000     0.813940000000     0.0397931  
H643     H      0.556390000000     0.802500000000     0.862590000000     0.0424924  
H644     H      0.948480000000     0.708980000000     0.787890000000     0.0417781  
H645     H      0.956370000000     0.702210000000     0.863430000000     0.0412666  
H646     H      0.491870000000     0.703530000000     0.832240000000     0.0411845  
H647     H      0.551320000000     0.806330000000     0.784570000000     0.0422632  
H648     H      0.555460000000     0.766300000000     0.833900000000     0.0396099  
H649     H      0.888500000000     0.537180000000     0.966740000000     0.0392824  
H650     H      0.852410000000     0.465440000000     0.963400000000     0.0393374  
H651     H      0.871610000000     0.941160000000     0.017820000000     0.0419553  
H652     H      0.875040000000     0.558220000000     0.005440000000     0.04193    
H653     H      0.930580000000     0.557010000000     0.024890000000     0.0421347  
H654     H      0.895180000000     0.033870000000     0.060640000000     0.0388903  
H655     H      0.816260000000     0.942340000000     0.998810000000     0.042614   
H656     H      0.858710000000     0.962160000000     0.057070000000     0.0391862  
H657     H      0.646600000000     0.535730000000     0.052820000000     0.0399793  
H658     H      0.610740000000     0.463410000000     0.052810000000     0.0401225  
H659     H      0.565900000000     0.941350000000     0.999000000000     0.0422212  
H660     H      0.680200000000     0.557770000000     0.013480000000     0.0423431  
H661     H      0.623010000000     0.557250000000     0.998010000000     0.0426203  
H662     H      0.634610000000     0.035440000000     0.959680000000     0.0391183  
H663     H      0.622970000000     0.941900000000     0.012680000000     0.0422306  
H664     H      0.598830000000     0.963520000000     0.958980000000     0.0391107  
H665     H      0.546920000000     0.509640000000     0.840260000000     0.041275   
H666     H      0.483130000000     0.947270000000     0.835390000000     0.0397394  
H667     H      0.942480000000     0.953720000000     0.881660000000     0.0418139  
H668     H      0.551590000000     0.546060000000     0.807910000000     0.0420607  
H669     H      0.541790000000     0.554760000000     0.882120000000     0.0417594  
H670     H      0.006400000000     0.551500000000     0.849010000000     0.0411532  
H671     H      0.949080000000     0.948520000000     0.804550000000     0.0423569  
H672     H      0.943890000000     0.989450000000     0.851490000000     0.0386241  
H673     H      0.766290000000     0.715340000000     0.484780000000     0.0413254  
H674     H      0.701740000000     0.712520000000     0.481050000000     0.0394783  
H675     H      0.704140000000     0.757640000000     0.527860000000     0.0421292  
H676     H      0.801570000000     0.749610000000     0.453350000000     0.0407803  
H677     H      0.808130000000     0.765690000000     0.528570000000     0.0422229  
H678     H      0.803130000000     0.797390000000     0.496570000000     0.0406917  
H679     H      0.699980000000     0.746430000000     0.450420000000     0.0421101  
H680     H      0.738880000000     0.793330000000     0.497980000000     0.0393789  
H681     H      0.714560000000     0.753230000000     0.159350000000     0.041489   
H682     H      0.715150000000     0.690300000000     0.162340000000     0.0397314  
H683     H      0.762910000000     0.698160000000     0.116710000000     0.0419248  
H684     H      0.744520000000     0.787890000000     0.194730000000     0.0420842  
H685     H      0.767600000000     0.800730000000     0.122820000000     0.0420948  
H686     H      0.797210000000     0.794190000000     0.156810000000     0.0412009  
H687     H      0.748890000000     0.689790000000     0.194470000000     0.0423144  
H688     H      0.796440000000     0.731560000000     0.149890000000     0.0392452  
H689     H      0.705870000000     0.967430000000     0.513560000000     0.0414749  
H690     H      0.770020000000     0.468490000000     0.518110000000     0.0393057  
H691     H      0.807990000000     0.512450000000     0.468050000000     0.0421095  
H692     H      0.702860000000     0.000700000000     0.544790000000     0.0416857  
H693     H      0.711180000000     0.017630000000     0.471370000000     0.0421352  
H694     H      0.748040000000     0.050210000000     0.502370000000     0.0409187  
H695     H      0.804370000000     0.504920000000     0.547370000000     0.0421631  
H696     H      0.809550000000     0.548610000000     0.497450000000     0.0388721  
H697     H      0.705300000000     0.007800000000     0.181080000000     0.0410641  
H698     H      0.706610000000     0.945810000000     0.188070000000     0.0385695  
H699     H      0.749240000000     0.949740000000     0.137550000000     0.0423208  
H700     H      0.737690000000     0.545860000000     0.210920000000     0.0421179  
H701     H      0.754290000000     0.552830000000     0.136560000000     0.0418678  
H702     H      0.787250000000     0.550030000000     0.168560000000     0.0412636  
H703     H      0.743710000000     0.948160000000     0.216090000000     0.0419862  
H704     H      0.786590000000     0.486350000000     0.166350000000     0.039388   
H705     H      0.954050000000     0.714770000000     0.494200000000     0.0407721  
H706     H      0.517290000000     0.716050000000     0.497540000000     0.0396653  
H707     H      0.558320000000     0.764320000000     0.452670000000     0.0417608  
H708     H      0.949060000000     0.745310000000     0.528370000000     0.0420463  
H709     H      0.959250000000     0.766590000000     0.455390000000     0.041982   
H710     H      0.994780000000     0.797470000000     0.489300000000     0.0407366  
H711     H      0.551480000000     0.749800000000     0.529850000000     0.042059   
H712     H      0.557050000000     0.797550000000     0.485210000000     0.039344   
H713     H      0.866640000000     0.659830000000     0.377690000000     0.0394703  
H714     H      0.902360000000     0.623150000000     0.378160000000     0.0396075  
H715     H      0.876160000000     0.574920000000     0.327080000000     0.042232   
H716     H      0.876300000000     0.690950000000     0.335840000000     0.0423735  
H717     H      0.818440000000     0.633170000000     0.326910000000     0.0418781  
H718     H      0.849730000000     0.642380000000     0.285450000000     0.0391595  
H719     H      0.933810000000     0.632530000000     0.336740000000     0.0421474  
H720     H      0.885710000000     0.606460000000     0.285640000000     0.0394098  
H721     H      0.608510000000     0.900130000000     0.383120000000     0.0395633  
H722     H      0.643720000000     0.864540000000     0.383220000000     0.0395204  
H723     H      0.628560000000     0.826720000000     0.321160000000     0.0422989  
H724     H      0.624710000000     0.939000000000     0.350310000000     0.0424735  
H725     H      0.570870000000     0.885240000000     0.320990000000     0.0421102  
H726     H      0.609580000000     0.901360000000     0.288040000000     0.0399899  
H727     H      0.682480000000     0.880570000000     0.350290000000     0.0425919  
H728     H      0.644930000000     0.865480000000     0.288050000000     0.0395193  
H729     H      0.962190000000     0.763200000000     0.163630000000     0.0412302  
H730     H      0.963020000000     0.701070000000     0.169720000000     0.0394788  
H731     H      0.508070000000     0.704920000000     0.122170000000     0.0421828  
H732     H      0.994880000000     0.800350000000     0.194360000000     0.0418768  
H733     H      0.011350000000     0.806810000000     0.119560000000     0.0419284  
H734     H      0.544240000000     0.804330000000     0.152010000000     0.04142    
H735     H      0.498240000000     0.701830000000     0.200210000000     0.042181   
H736     H      0.543460000000     0.740670000000     0.151190000000     0.0395775  
H737     H      0.510700000000     0.961080000000     0.505920000000     0.0412815  
H738     H      0.946450000000     0.960420000000     0.501850000000     0.0391202  
H739     H      0.950940000000     0.505100000000     0.549490000000     0.0422589  
H740     H      0.546320000000     0.995010000000     0.474570000000     0.0413969  
H741     H      0.554230000000     0.011720000000     0.549010000000     0.041971   
H742     H      0.548950000000     0.541960000000     0.515680000000     0.0410009  
H743     H      0.945920000000     0.493290000000     0.471650000000     0.0422823  
H744     H      0.985560000000     0.539960000000     0.518690000000     0.0390016  
H745     H      0.853780000000     0.884060000000     0.377880000000     0.0397587  
H746     H      0.889030000000     0.847830000000     0.378150000000     0.0397366  
H747     H      0.873510000000     0.809770000000     0.316200000000     0.042423   
H748     H      0.869910000000     0.922340000000     0.344120000000     0.0425478  
H749     H      0.815630000000     0.868140000000     0.316210000000     0.0425242  
H750     H      0.854040000000     0.883730000000     0.282820000000     0.0395939  
H751     H      0.927460000000     0.863650000000     0.344670000000     0.0416308  
H752     H      0.889340000000     0.848430000000     0.282990000000     0.0393468  
H753     H      0.616380000000     0.646960000000     0.381870000000     0.0388591  
H754     H      0.652540000000     0.611140000000     0.384230000000     0.0392011  
H755     H      0.623000000000     0.558130000000     0.340690000000     0.0421074  
H756     H      0.622210000000     0.673740000000     0.336610000000     0.042201   
H757     H      0.564430000000     0.615290000000     0.337480000000     0.0425582  
H758     H      0.591910000000     0.620870000000     0.293050000000     0.0392124  
H759     H      0.680750000000     0.616420000000     0.340560000000     0.0418096  
H760     H      0.629280000000     0.584800000000     0.295130000000     0.0399699  
H761     H      0.539900000000     0.480540000000     0.189220000000     0.0410156  
H762     H      0.039780000000     0.543200000000     0.193680000000     0.0387895  
H763     H      0.001670000000     0.044210000000     0.140610000000     0.0453584  
H764     H      0.502630000000     0.442270000000     0.213700000000     0.0411708  
H765     H      0.497860000000     0.441960000000     0.136010000000     0.0410773  
H766     H      0.459870000000     0.941900000000     0.161090000000     0.0415611  
H767     H      0.999110000000     0.041100000000     0.218160000000     0.0398462  
H768     H      0.961550000000     0.007010000000     0.161460000000     0.0402097  
N1       N      0.251620000000     0.348190000000     0.661000000000    -0.165931   
N2       N      0.248680000000     0.409180000000     0.686040000000    -0.166154   
N3       N      0.250320000000     0.097520000000     0.669470000000    -0.166027   
N4       N      0.253160000000     0.161480000000     0.644830000000    -0.166134   
N5       N      0.501040000000     0.408510000000     0.671660000000    -0.165748   
N6       N      0.499890000000     0.345510000000     0.646000000000    -0.16598    
N7       N      0.500470000000     0.158250000000     0.663800000000    -0.165755   
N8       N      0.501660000000     0.096450000000     0.689560000000    -0.16601    
N9       N      0.252000000000     0.248690000000     0.781070000000    -0.165192   
N10      N      0.245760000000     0.255620000000     0.867010000000    -0.165268   
N11      N      0.243150000000     0.008200000000     0.798790000000    -0.166422   
N12      N      0.248040000000     0.000130000000     0.884020000000    -0.166666   
N13      N      0.414290000000     0.253670000000     0.995380000000    -0.165414   
N14      N      0.350770000000     0.253010000000     0.973140000000    -0.16549    
N15      N      0.164860000000     0.252950000000     0.009550000000    -0.165781   
N16      N      0.102020000000     0.253540000000     0.987660000000    -0.165728   
N17      N      0.507570000000     0.250950000000     0.866880000000    -0.165569   
N18      N      0.498740000000     0.258740000000     0.782080000000    -0.165616   
N19      N      0.404300000000     0.999040000000     0.022460000000    -0.166622   
N20      N      0.342390000000     0.000580000000     0.999850000000    -0.166358   
N21      N      0.090930000000     0.999230000000     0.997000000000    -0.165641   
N22      N      0.154910000000     0.999860000000     0.016120000000    -0.165611   
N23      N      0.491330000000     0.005090000000     0.885790000000    -0.166747   
N24      N      0.501650000000     0.995970000000     0.802430000000    -0.166403   
N25      N      0.256840000000     0.263440000000     0.531500000000    -0.165836   
N26      N      0.249510000000     0.245190000000     0.447350000000    -0.165947   
N27      N      0.267470000000     0.250580000000     0.115170000000    -0.165476   
N28      N      0.243600000000     0.237240000000     0.197620000000    -0.165357   
N29      N      0.260890000000     0.017200000000     0.465650000000    -0.165855   
N30      N      0.252180000000     0.999440000000     0.550080000000    -0.165885   
N31      N      0.254530000000     0.002300000000     0.133090000000    -0.166462   
N32      N      0.238860000000     0.995790000000     0.217690000000    -0.166355   
N33      N      0.509720000000     0.267470000000     0.450190000000    -0.166193   
N34      N      0.499140000000     0.245130000000     0.532820000000    -0.166131   
N35      N      0.344110000000     0.100120000000     0.325020000000    -0.165235   
N36      N      0.408860000000     0.165080000000     0.338680000000    -0.165086   
N37      N      0.096250000000     0.352970000000     0.318720000000    -0.165314   
N38      N      0.156530000000     0.413430000000     0.352120000000    -0.165406   
N39      N      0.512340000000     0.257120000000     0.116810000000    -0.16556    
N40      N      0.494390000000     0.250110000000     0.201230000000    -0.165583   
N41      N      0.503750000000     0.010920000000     0.553540000000    -0.166      
N42      N      0.495110000000     0.992160000000     0.469530000000    -0.166055   
N43      N      0.341570000000     0.335220000000     0.313750000000    -0.166069   
N44      N      0.402510000000     0.395580000000     0.345270000000    -0.166129   
N45      N      0.089270000000     0.083410000000     0.334930000000    -0.165832   
N46      N      0.154480000000     0.149080000000     0.339020000000    -0.165989   
N47      N      0.496630000000     0.991880000000     0.133850000000    -0.166224   
N48      N      0.501890000000     0.992320000000     0.220430000000    -0.166333   
N49      N      0.251900000000     0.848320000000     0.661670000000    -0.16595    
N50      N      0.249040000000     0.909430000000     0.686360000000    -0.166113   
N51      N      0.250090000000     0.597370000000     0.669930000000    -0.166053   
N52      N      0.253040000000     0.661430000000     0.645460000000    -0.166175   
N53      N      0.501230000000     0.908690000000     0.671620000000    -0.165787   
N54      N      0.500040000000     0.845630000000     0.646100000000    -0.165997   
N55      N      0.500340000000     0.658220000000     0.663680000000    -0.165761   
N56      N      0.501460000000     0.596290000000     0.689100000000    -0.16604    
N57      N      0.252060000000     0.748680000000     0.781780000000    -0.165169   
N58      N      0.245790000000     0.755650000000     0.867700000000    -0.165319   
N59      N      0.243120000000     0.507730000000     0.799090000000    -0.166086   
N60      N      0.248770000000     0.498660000000     0.884000000000    -0.166303   
N61      N      0.414350000000     0.753700000000     0.995620000000    -0.165377   
N62      N      0.350760000000     0.753050000000     0.973740000000    -0.165546   
N63      N      0.164840000000     0.752970000000     0.010100000000    -0.165886   
N64      N      0.102080000000     0.753550000000     0.987820000000    -0.165665   
N65      N      0.507600000000     0.750970000000     0.866970000000    -0.165618   
N66      N      0.498780000000     0.758750000000     0.782160000000    -0.165584   
N67      N      0.404390000000     0.498780000000     0.023560000000    -0.166384   
N68      N      0.342480000000     0.500240000000     0.000490000000    -0.166827   
N69      N      0.091040000000     0.499070000000     0.996160000000    -0.165445   
N70      N      0.154950000000     0.499730000000     0.016130000000    -0.165532   
N71      N      0.491120000000     0.505150000000     0.885720000000    -0.166379   
N72      N      0.501610000000     0.495830000000     0.802320000000    -0.16618    
N73      N      0.256970000000     0.763580000000     0.532230000000    -0.165861   
N74      N      0.249670000000     0.745270000000     0.448110000000    -0.166015   
N75      N      0.267450000000     0.750600000000     0.115860000000    -0.165491   
N76      N      0.243750000000     0.737250000000     0.198380000000    -0.165329   
N77      N      0.260620000000     0.517660000000     0.465760000000    -0.165598   
N78      N      0.251520000000     0.498950000000     0.550030000000    -0.165563   
N79      N      0.255160000000     0.503030000000     0.133230000000    -0.166183   
N80      N      0.238170000000     0.496040000000     0.217600000000    -0.166165   
N81      N      0.509740000000     0.767480000000     0.450250000000    -0.166273   
N82      N      0.499130000000     0.745190000000     0.532890000000    -0.16613    
N83      N      0.343750000000     0.600470000000     0.325060000000    -0.165174   
N84      N      0.408630000000     0.665300000000     0.338720000000    -0.165067   
N85      N      0.096480000000     0.852740000000     0.318790000000    -0.165281   
N86      N      0.156900000000     0.913070000000     0.352160000000    -0.165291   
N87      N      0.512410000000     0.757140000000     0.116910000000    -0.165509   
N88      N      0.494390000000     0.750130000000     0.201290000000    -0.165602   
N89      N      0.503400000000     0.510100000000     0.553130000000    -0.165827   
N90      N      0.494220000000     0.489630000000     0.469550000000    -0.165696   
N91      N      0.341300000000     0.835700000000     0.314710000000    -0.166161   
N92      N      0.401850000000     0.896120000000     0.346750000000    -0.166138   
N93      N      0.090040000000     0.582900000000     0.336220000000    -0.165775   
N94      N      0.155080000000     0.648760000000     0.340050000000    -0.165967   
N95      N      0.496530000000     0.491370000000     0.133900000000    -0.166008   
N96      N      0.504020000000     0.492830000000     0.220300000000    -0.166213   
N97      N      0.751620000000     0.348190000000     0.661000000000    -0.165932   
N98      N      0.748680000000     0.409180000000     0.686040000000    -0.166155   
N99      N      0.750320000000     0.097520000000     0.669470000000    -0.166021   
N100     N      0.753160000000     0.161480000000     0.644830000000    -0.166136   
N101     N      0.001040000000     0.408510000000     0.671660000000    -0.164983   
N102     N      0.999900000000     0.345510000000     0.646000000000    -0.166752   
N103     N      0.000470000000     0.158250000000     0.663800000000    -0.16509    
N104     N      0.001660000000     0.096450000000     0.689560000000    -0.165364   
N105     N      0.752000000000     0.248690000000     0.781070000000    -0.1652     
N106     N      0.745760000000     0.255620000000     0.867010000000    -0.165265   
N107     N      0.743150000000     0.008200000000     0.798790000000    -0.166421   
N108     N      0.748040000000     0.000130000000     0.884020000000    -0.166666   
N109     N      0.914290000000     0.253670000000     0.995380000000    -0.165504   
N110     N      0.850770000000     0.253010000000     0.973140000000    -0.165498   
N111     N      0.664860000000     0.252950000000     0.009550000000    -0.165784   
N112     N      0.602030000000     0.253540000000     0.987660000000    -0.165717   
N113     N      0.007570000000     0.250950000000     0.866880000000    -0.164803   
N114     N      0.998740000000     0.258740000000     0.782080000000    -0.166338   
N115     N      0.904300000000     0.999040000000     0.022460000000    -0.166701   
N116     N      0.842390000000     0.000580000000     0.999850000000    -0.166297   
N117     N      0.590930000000     0.999230000000     0.997000000000    -0.165738   
N118     N      0.654910000000     0.999860000000     0.016120000000    -0.165625   
N119     N      0.991330000000     0.005090000000     0.885790000000    -0.167465   
N120     N      0.001650000000     0.995970000000     0.802430000000    -0.165647   
N121     N      0.756840000000     0.263440000000     0.531500000000    -0.165837   
N122     N      0.749510000000     0.245190000000     0.447350000000    -0.165954   
N123     N      0.767470000000     0.250580000000     0.115170000000    -0.165484   
N124     N      0.743600000000     0.237240000000     0.197620000000    -0.165366   
N125     N      0.760890000000     0.017200000000     0.465650000000    -0.16586    
N126     N      0.752180000000     0.999440000000     0.550080000000    -0.165889   
N127     N      0.754530000000     0.002300000000     0.133090000000    -0.166459   
N128     N      0.738860000000     0.995790000000     0.217690000000    -0.166371   
N129     N      0.009720000000     0.267470000000     0.450190000000    -0.165487   
N130     N      0.999140000000     0.245130000000     0.532820000000    -0.166805   
N131     N      0.844110000000     0.100120000000     0.325020000000    -0.165225   
N132     N      0.908860000000     0.165080000000     0.338680000000    -0.165157   
N133     N      0.596250000000     0.352970000000     0.318720000000    -0.165375   
N134     N      0.656530000000     0.413430000000     0.352120000000    -0.165419   
N135     N      0.012340000000     0.257120000000     0.116810000000    -0.16605    
N136     N      0.994390000000     0.250110000000     0.201230000000    -0.165081   
N137     N      0.003750000000     0.010920000000     0.553540000000    -0.165258   
N138     N      0.995110000000     0.992160000000     0.469530000000    -0.166792   
N139     N      0.841570000000     0.335220000000     0.313750000000    -0.166076   
N140     N      0.902510000000     0.395580000000     0.345270000000    -0.166204   
N141     N      0.589270000000     0.083410000000     0.334930000000    -0.165923   
N142     N      0.654480000000     0.149080000000     0.339020000000    -0.16602    
N143     N      0.996630000000     0.991880000000     0.133850000000    -0.165376   
N144     N      0.001880000000     0.992320000000     0.220430000000    -0.165452   
N145     N      0.751900000000     0.848320000000     0.661670000000    -0.165945   
N146     N      0.749040000000     0.909430000000     0.686360000000    -0.166133   
N147     N      0.750090000000     0.597370000000     0.669930000000    -0.166052   
N148     N      0.753040000000     0.661430000000     0.645460000000    -0.166213   
N149     N      0.001230000000     0.908690000000     0.671620000000    -0.165137   
N150     N      0.000040000000     0.845630000000     0.646100000000    -0.163611   
N151     N      0.000340000000     0.658220000000     0.663680000000    -0.163387   
N152     N      0.001460000000     0.596290000000     0.689100000000    -0.165424   
N153     N      0.752060000000     0.748680000000     0.781780000000    -0.165176   
N154     N      0.745780000000     0.755650000000     0.867700000000    -0.165297   
N155     N      0.743120000000     0.507730000000     0.799090000000    -0.166084   
N156     N      0.748770000000     0.498660000000     0.884000000000    -0.166305   
N157     N      0.914350000000     0.753700000000     0.995620000000    -0.165467   
N158     N      0.850760000000     0.753050000000     0.973740000000    -0.165551   
N159     N      0.664840000000     0.752970000000     0.010100000000    -0.165827   
N160     N      0.602080000000     0.753550000000     0.987820000000    -0.165732   
N161     N      0.007600000000     0.750970000000     0.866970000000    -0.164862   
N162     N      0.998780000000     0.758750000000     0.782160000000    -0.166301   
N163     N      0.904390000000     0.498780000000     0.023560000000    -0.166459   
N164     N      0.842490000000     0.500240000000     0.000490000000    -0.166758   
N165     N      0.591040000000     0.499070000000     0.996160000000    -0.165533   
N166     N      0.654950000000     0.499730000000     0.016130000000    -0.165536   
N167     N      0.991120000000     0.505150000000     0.885720000000    -0.167105   
N168     N      0.001610000000     0.495830000000     0.802320000000    -0.165431   
N169     N      0.756970000000     0.763580000000     0.532230000000    -0.16586    
N170     N      0.749660000000     0.745270000000     0.448110000000    -0.166016   
N171     N      0.767450000000     0.750600000000     0.115860000000    -0.165481   
N172     N      0.743750000000     0.737250000000     0.198380000000    -0.16534    
N173     N      0.760620000000     0.517660000000     0.465760000000    -0.1656     
N174     N      0.751520000000     0.498950000000     0.550030000000    -0.165565   
N175     N      0.755160000000     0.503030000000     0.133230000000    -0.166192   
N176     N      0.738170000000     0.496040000000     0.217600000000    -0.166173   
N177     N      0.009740000000     0.767480000000     0.450250000000    -0.165521   
N178     N      0.999130000000     0.745190000000     0.532890000000    -0.166846   
N179     N      0.843750000000     0.600470000000     0.325060000000    -0.165137   
N180     N      0.908630000000     0.665300000000     0.338720000000    -0.165184   
N181     N      0.596480000000     0.852740000000     0.318790000000    -0.165369   
N182     N      0.656900000000     0.913070000000     0.352160000000    -0.165296   
N183     N      0.012410000000     0.757140000000     0.116910000000    -0.166002   
N184     N      0.994390000000     0.750130000000     0.201290000000    -0.165099   
N185     N      0.003400000000     0.510100000000     0.553130000000    -0.165073   
N186     N      0.994220000000     0.489630000000     0.469550000000    -0.166425   
N187     N      0.841300000000     0.835700000000     0.314710000000    -0.166174   
N188     N      0.901850000000     0.896120000000     0.346750000000    -0.16618    
N189     N      0.590040000000     0.582900000000     0.336220000000    -0.165898   
N190     N      0.655080000000     0.648760000000     0.340050000000    -0.165973   
N191     N      0.996530000000     0.491370000000     0.133900000000    -0.165255   
N192     N      0.004020000000     0.492830000000     0.220300000000    -0.165056   
O1       O      0.010690000000     0.471530000000     0.282760000000    -0.396219   
O2       O      0.012870000000     0.477160000000     0.408380000000    -0.396062   
O3       O      0.464200000000     0.427050000000     0.347670000000    -0.39821    
O4       O      0.057900000000     0.021930000000     0.341950000000    -0.399259   
O5       O      0.028140000000     0.052090000000     0.344180000000    -0.39791    
O6       O      0.434650000000     0.457220000000     0.341810000000    -0.400068   
O7       O      0.478640000000     0.004140000000     0.406630000000    -0.398712   
O8       O      0.483830000000     0.005920000000     0.281170000000    -0.400136   
O9       O      0.485840000000     0.271700000000     0.262610000000    -0.397705   
O10      O      0.488960000000     0.275800000000     0.388230000000    -0.398814   
O11      O      0.034580000000     0.321110000000     0.322640000000    -0.395527   
O12      O      0.440240000000     0.226410000000     0.328920000000    -0.39656    
O13      O      0.470490000000     0.196870000000     0.333630000000    -0.396171   
O14      O      0.064390000000     0.291060000000     0.319180000000    -0.396311   
O15      O      0.023340000000     0.250410000000     0.388560000000    -0.397239   
O16      O      0.011460000000     0.237530000000     0.263580000000    -0.39385    
O17      O      0.257360000000     0.484610000000     0.279160000000    -0.396175   
O18      O      0.272810000000     0.499550000000     0.403770000000    -0.394807   
O19      O      0.218280000000     0.445270000000     0.350170000000    -0.396208   
O20      O      0.312450000000     0.038510000000     0.332100000000    -0.396116   
O21      O      0.283070000000     0.068960000000     0.336050000000    -0.397146   
O22      O      0.188280000000     0.475100000000     0.346380000000    -0.397179   
O23      O      0.239320000000     0.025110000000     0.404080000000    -0.400264   
O24      O      0.232340000000     0.018530000000     0.279070000000    -0.401002   
O25      O      0.233030000000     0.257910000000     0.384990000000    -0.399458   
O26      O      0.232120000000     0.255720000000     0.259480000000    -0.398857   
O27      O      0.185500000000     0.209750000000     0.325280000000    -0.398602   
O28      O      0.280080000000     0.303980000000     0.319960000000    -0.398725   
O29      O      0.309490000000     0.273540000000     0.316370000000    -0.399213   
O30      O      0.215600000000     0.180060000000     0.330210000000    -0.399622   
O31      O      0.257370000000     0.221210000000     0.260090000000    -0.394382   
O32      O      0.267310000000     0.232390000000     0.385670000000    -0.395667   
O33      O      0.486460000000     0.465060000000     0.069840000000    -0.397997   
O34      O      0.477400000000     0.471930000000     0.945430000000    -0.398201   
O35      O      0.029350000000     0.468820000000     0.999780000000    -0.395165   
O36      O      0.435540000000     0.468580000000     0.015630000000    -0.39859    
O37      O      0.465540000000     0.028820000000     0.015340000000    -0.401544   
O38      O      0.059390000000     0.028640000000     0.007780000000    -0.40046    
O39      O      0.011810000000     0.031790000000     0.948990000000    -0.398413   
O40      O      0.012260000000     0.025170000000     0.074160000000    -0.39837    
O41      O      0.022730000000     0.285240000000     0.053770000000    -0.398431   
O42      O      0.024120000000     0.282310000000     0.928060000000    -0.397745   
O43      O      0.475910000000     0.283630000000     0.990140000000    -0.396582   
O44      O      0.070450000000     0.283670000000     0.991720000000    -0.397623   
O45      O      0.040370000000     0.223720000000     0.989180000000    -0.396843   
O46      O      0.446240000000     0.223860000000     0.996150000000    -0.397659   
O47      O      0.489740000000     0.222490000000     0.929830000000    -0.396067   
O48      O      0.497350000000     0.225430000000     0.055680000000    -0.395924   
O49      O      0.264220000000     0.031110000000     0.070840000000    -0.402083   
O50      O      0.263990000000     0.030200000000     0.945720000000    -0.401519   
O51      O      0.216400000000     0.030190000000     0.009400000000    -0.398468   
O52      O      0.310990000000     0.030600000000     0.007170000000    -0.399534   
O53      O      0.280990000000     0.470370000000     0.003890000000    -0.400276   
O54      O      0.187030000000     0.470130000000     0.014240000000    -0.399098   
O55      O      0.229790000000     0.469530000000     0.946370000000    -0.396771   
O56      O      0.239130000000     0.471530000000     0.071980000000    -0.396431   
O57      O      0.250440000000     0.221560000000     0.052340000000    -0.394712   
O58      O      0.234500000000     0.224030000000     0.928040000000    -0.393956   
O59      O      0.289250000000     0.222910000000     0.979560000000    -0.396409   
O60      O      0.196060000000     0.222810000000     0.001010000000    -0.397083   
O61      O      0.225790000000     0.282770000000     0.998600000000    -0.398394   
O62      O      0.319550000000     0.282730000000     0.984720000000    -0.398293   
O63      O      0.268630000000     0.283870000000     0.929080000000    -0.397958   
O64      O      0.276310000000     0.281410000000     0.054250000000    -0.39827    
O65      O      0.471660000000     0.440810000000     0.671340000000    -0.39932    
O66      O      0.472000000000     0.034880000000     0.684700000000    -0.399861   
O67      O      0.472510000000     0.493690000000     0.614820000000    -0.395589   
O68      O      0.471640000000     0.482190000000     0.740170000000    -0.396705   
O69      O      0.031550000000     0.016310000000     0.740970000000    -0.401601   
O70      O      0.032530000000     0.019680000000     0.615720000000    -0.401267   
O71      O      0.031810000000     0.065180000000     0.681320000000    -0.398348   
O72      O      0.031420000000     0.470300000000     0.675770000000    -0.398222   
O73      O      0.470040000000     0.189560000000     0.659810000000    -0.39761    
O74      O      0.469810000000     0.284070000000     0.654510000000    -0.397672   
O75      O      0.469740000000     0.235390000000     0.594710000000    -0.3998     
O76      O      0.469480000000     0.238000000000     0.720160000000    -0.399025   
O77      O      0.029210000000     0.272240000000     0.720130000000    -0.393847   
O78      O      0.029500000000     0.261170000000     0.594780000000    -0.394422   
O79      O      0.029590000000     0.313690000000     0.650540000000    -0.397914   
O80      O      0.029820000000     0.219980000000     0.663750000000    -0.399739   
O81      O      0.219510000000     0.035620000000     0.671160000000    -0.397949   
O82      O      0.218690000000     0.440470000000     0.676170000000    -0.397504   
O83      O      0.216150000000     0.487830000000     0.736050000000    -0.400986   
O84      O      0.220620000000     0.487760000000     0.611000000000    -0.401061   
O85      O      0.280800000000     0.013510000000     0.613300000000    -0.394903   
O86      O      0.276060000000     0.022050000000     0.738680000000    -0.39677    
O87      O      0.278290000000     0.470740000000     0.682720000000    -0.401013   
O88      O      0.279380000000     0.065010000000     0.670100000000    -0.400808   
O89      O      0.223470000000     0.193260000000     0.648820000000    -0.400787   
O90      O      0.222670000000     0.286560000000     0.661040000000    -0.400434   
O91      O      0.224970000000     0.246050000000     0.592540000000    -0.394923   
O92      O      0.222350000000     0.234300000000     0.718340000000    -0.393111   
O93      O      0.282050000000     0.268670000000     0.719550000000    -0.399908   
O94      O      0.284720000000     0.272060000000     0.594260000000    -0.39995    
O95      O      0.282520000000     0.317260000000     0.658830000000    -0.397423   
O96      O      0.283150000000     0.222850000000     0.654390000000    -0.397343   
O97      O      0.009310000000     0.971600000000     0.282930000000    -0.396886   
O98      O      0.012750000000     0.978460000000     0.408410000000    -0.396652   
O99      O      0.463530000000     0.927740000000     0.348580000000    -0.398809   
O100     O      0.058710000000     0.521340000000     0.342630000000    -0.398629   
O101     O      0.028880000000     0.551430000000     0.344960000000    -0.398157   
O102     O      0.433840000000     0.957770000000     0.342780000000    -0.399827   
O103     O      0.478740000000     0.502810000000     0.406600000000    -0.397273   
O104     O      0.485350000000     0.505970000000     0.280990000000    -0.398712   
O105     O      0.485940000000     0.771800000000     0.262660000000    -0.397614   
O106     O      0.489070000000     0.775910000000     0.388290000000    -0.398879   
O107     O      0.034810000000     0.821100000000     0.322700000000    -0.395455   
O108     O      0.440220000000     0.726630000000     0.328980000000    -0.396466   
O109     O      0.470270000000     0.696880000000     0.333690000000    -0.396086   
O110     O      0.064410000000     0.790840000000     0.319250000000    -0.396354   
O111     O      0.023240000000     0.750300000000     0.388630000000    -0.397348   
O112     O      0.011350000000     0.737440000000     0.263650000000    -0.393985   
O113     O      0.257840000000     0.984220000000     0.279260000000    -0.396962   
O114     O      0.273190000000     0.999170000000     0.403740000000    -0.395564   
O115     O      0.218670000000     0.944870000000     0.350180000000    -0.396019   
O116     O      0.312030000000     0.538870000000     0.332050000000    -0.396124   
O117     O      0.282700000000     0.569360000000     0.336120000000    -0.396943   
O118     O      0.188690000000     0.974740000000     0.346410000000    -0.397316   
O119     O      0.238900000000     0.525440000000     0.404170000000    -0.399277   
O120     O      0.231940000000     0.518980000000     0.279020000000    -0.399956   
O121     O      0.233010000000     0.757790000000     0.385750000000    -0.39951    
O122     O      0.232080000000     0.755570000000     0.260240000000    -0.398864   
O123     O      0.185700000000     0.709400000000     0.326080000000    -0.398672   
O124     O      0.279810000000     0.804070000000     0.320730000000    -0.398633   
O125     O      0.309610000000     0.774010000000     0.317140000000    -0.399266   
O126     O      0.216180000000     0.680090000000     0.331010000000    -0.39949    
O127     O      0.257730000000     0.721420000000     0.260860000000    -0.394318   
O128     O      0.267630000000     0.732660000000     0.386420000000    -0.39587    
O129     O      0.486270000000     0.965370000000     0.069900000000    -0.399077   
O130     O      0.477450000000     0.972020000000     0.945550000000    -0.399204   
O131     O      0.029250000000     0.969000000000     0.000130000000    -0.396589   
O132     O      0.435470000000     0.968810000000     0.015420000000    -0.399635   
O133     O      0.465590000000     0.528590000000     0.015640000000    -0.400595   
O134     O      0.059510000000     0.528430000000     0.007570000000    -0.399517   
O135     O      0.011790000000     0.531700000000     0.948990000000    -0.397193   
O136     O      0.012390000000     0.524840000000     0.074280000000    -0.397224   
O137     O      0.022800000000     0.785260000000     0.053860000000    -0.398423   
O138     O      0.024160000000     0.782320000000     0.928150000000    -0.397843   
O139     O      0.475970000000     0.783650000000     0.990260000000    -0.396604   
O140     O      0.070500000000     0.783690000000     0.991810000000    -0.397619   
O141     O      0.040420000000     0.723740000000     0.989270000000    -0.397006   
O142     O      0.446300000000     0.723880000000     0.996270000000    -0.397486   
O143     O      0.489780000000     0.722510000000     0.929920000000    -0.396056   
O144     O      0.497410000000     0.725450000000     0.055770000000    -0.396103   
O145     O      0.264320000000     0.531340000000     0.070670000000    -0.400754   
O146     O      0.264090000000     0.529390000000     0.945380000000    -0.400235   
O147     O      0.216430000000     0.529940000000     0.008880000000    -0.397747   
O148     O      0.311060000000     0.530300000000     0.007230000000    -0.399031   
O149     O      0.280920000000     0.970690000000     0.003260000000    -0.401011   
O150     O      0.187020000000     0.970330000000     0.014130000000    -0.399679   
O151     O      0.229760000000     0.970320000000     0.946080000000    -0.397456   
O152     O      0.239000000000     0.971290000000     0.071550000000    -0.397168   
O153     O      0.250440000000     0.721580000000     0.053030000000    -0.394638   
O154     O      0.234500000000     0.724060000000     0.928730000000    -0.394018   
O155     O      0.289250000000     0.722940000000     0.980230000000    -0.396402   
O156     O      0.196060000000     0.722830000000     0.001680000000    -0.397032   
O157     O      0.225780000000     0.782780000000     0.999260000000    -0.398477   
O158     O      0.319550000000     0.782760000000     0.985420000000    -0.398236   
O159     O      0.268640000000     0.783890000000     0.929780000000    -0.39805    
O160     O      0.276280000000     0.781430000000     0.054950000000    -0.39829    
O161     O      0.471880000000     0.941000000000     0.671370000000    -0.399605   
O162     O      0.471790000000     0.534710000000     0.684350000000    -0.399624   
O163     O      0.472800000000     0.994050000000     0.615110000000    -0.396495   
O164     O      0.471790000000     0.982230000000     0.740270000000    -0.397748   
O165     O      0.031390000000     0.516290000000     0.740770000000    -0.400738   
O166     O      0.032240000000     0.519300000000     0.615390000000    -0.400329   
O167     O      0.031590000000     0.565010000000     0.680880000000    -0.398313   
O168     O      0.031640000000     0.970470000000     0.675860000000    -0.398238   
O169     O      0.469980000000     0.689600000000     0.659830000000    -0.397702   
O170     O      0.469900000000     0.784180000000     0.654620000000    -0.397702   
O171     O      0.469750000000     0.735500000000     0.594790000000    -0.399914   
O172     O      0.469510000000     0.738050000000     0.720240000000    -0.399127   
O173     O      0.029240000000     0.772240000000     0.720210000000    -0.393824   
O174     O      0.029490000000     0.761190000000     0.594840000000    -0.394456   
O175     O      0.029680000000     0.813740000000     0.650640000000    -0.397243   
O176     O      0.029760000000     0.719950000000     0.663770000000    -0.397306   
O177     O      0.219220000000     0.535470000000     0.671530000000    -0.397506   
O178     O      0.219050000000     0.940680000000     0.676180000000    -0.397634   
O179     O      0.216350000000     0.988080000000     0.735770000000    -0.402003   
O180     O      0.221100000000     0.987890000000     0.610890000000    -0.402103   
O181     O      0.280310000000     0.513300000000     0.613230000000    -0.394205   
O182     O      0.275870000000     0.521770000000     0.738780000000    -0.39603    
O183     O      0.278650000000     0.970980000000     0.682880000000    -0.400913   
O184     O      0.279090000000     0.564810000000     0.670270000000    -0.400802   
O185     O      0.223450000000     0.693290000000     0.649510000000    -0.400778   
O186     O      0.222860000000     0.786690000000     0.661760000000    -0.400539   
O187     O      0.225080000000     0.746160000000     0.593260000000    -0.394985   
O188     O      0.222420000000     0.734360000000     0.719040000000    -0.393243   
O189     O      0.282130000000     0.768630000000     0.720270000000    -0.399833   
O190     O      0.284820000000     0.772100000000     0.594990000000    -0.40017    
O191     O      0.282710000000     0.817300000000     0.659580000000    -0.397485   
O192     O      0.283140000000     0.722790000000     0.655070000000    -0.39724    
O193     O      0.510690000000     0.471530000000     0.282760000000    -0.398303   
O194     O      0.512870000000     0.477160000000     0.408380000000    -0.397816   
O195     O      0.964200000000     0.427050000000     0.347670000000    -0.399589   
O196     O      0.557900000000     0.021930000000     0.341950000000    -0.399116   
O197     O      0.528140000000     0.052090000000     0.344180000000    -0.399508   
O198     O      0.934650000000     0.457220000000     0.341810000000    -0.399843   
O199     O      0.978640000000     0.004140000000     0.406630000000    -0.398224   
O200     O      0.983830000000     0.005920000000     0.281170000000    -0.399444   
O201     O      0.985840000000     0.271700000000     0.262610000000    -0.397257   
O202     O      0.988970000000     0.275800000000     0.388230000000    -0.400632   
O203     O      0.534580000000     0.321110000000     0.322640000000    -0.396982   
O204     O      0.940240000000     0.226410000000     0.328920000000    -0.396375   
O205     O      0.970490000000     0.196870000000     0.333630000000    -0.39761    
O206     O      0.564390000000     0.291060000000     0.319180000000    -0.396152   
O207     O      0.523340000000     0.250410000000     0.388560000000    -0.396758   
O208     O      0.511460000000     0.237530000000     0.263580000000    -0.395887   
O209     O      0.757360000000     0.484610000000     0.279160000000    -0.396183   
O210     O      0.772810000000     0.499550000000     0.403770000000    -0.394813   
O211     O      0.718280000000     0.445270000000     0.350170000000    -0.396204   
O212     O      0.812450000000     0.038510000000     0.332100000000    -0.396089   
O213     O      0.783070000000     0.068960000000     0.336050000000    -0.39727    
O214     O      0.688280000000     0.475100000000     0.346380000000    -0.397196   
O215     O      0.739320000000     0.025110000000     0.404080000000    -0.40027    
O216     O      0.732340000000     0.018530000000     0.279070000000    -0.401006   
O217     O      0.733030000000     0.257910000000     0.384990000000    -0.39947    
O218     O      0.732120000000     0.255720000000     0.259480000000    -0.398881   
O219     O      0.685510000000     0.209750000000     0.325280000000    -0.398748   
O220     O      0.780080000000     0.303980000000     0.319960000000    -0.398738   
O221     O      0.809490000000     0.273540000000     0.316370000000    -0.399229   
O222     O      0.715610000000     0.180060000000     0.330210000000    -0.39941    
O223     O      0.757370000000     0.221210000000     0.260090000000    -0.39439    
O224     O      0.767310000000     0.232390000000     0.385670000000    -0.395671   
O225     O      0.986460000000     0.465060000000     0.069840000000    -0.397474   
O226     O      0.977410000000     0.471930000000     0.945430000000    -0.397737   
O227     O      0.529350000000     0.468820000000     0.999780000000    -0.396714   
O228     O      0.935540000000     0.468580000000     0.015630000000    -0.398364   
O229     O      0.965540000000     0.028820000000     0.015340000000    -0.403022   
O230     O      0.559390000000     0.028640000000     0.007780000000    -0.400415   
O231     O      0.511810000000     0.031790000000     0.948990000000    -0.400134   
O232     O      0.512260000000     0.025170000000     0.074160000000    -0.400289   
O233     O      0.522730000000     0.285240000000     0.053770000000    -0.39794    
O234     O      0.524110000000     0.282310000000     0.928060000000    -0.397294   
O235     O      0.975910000000     0.283630000000     0.990140000000    -0.398097   
O236     O      0.570450000000     0.283670000000     0.991720000000    -0.397351   
O237     O      0.540370000000     0.223720000000     0.989180000000    -0.398196   
O238     O      0.946240000000     0.223860000000     0.996150000000    -0.39756    
O239     O      0.989740000000     0.222490000000     0.929830000000    -0.397777   
O240     O      0.997350000000     0.225430000000     0.055680000000    -0.397984   
O241     O      0.764220000000     0.031110000000     0.070840000000    -0.402105   
O242     O      0.763990000000     0.030200000000     0.945720000000    -0.401526   
O243     O      0.716400000000     0.030190000000     0.009400000000    -0.398477   
O244     O      0.810990000000     0.030600000000     0.007170000000    -0.399629   
O245     O      0.780990000000     0.470370000000     0.003890000000    -0.400336   
O246     O      0.687030000000     0.470130000000     0.014240000000    -0.399024   
O247     O      0.729790000000     0.469530000000     0.946370000000    -0.396767   
O248     O      0.739130000000     0.471530000000     0.071980000000    -0.396448   
O249     O      0.750440000000     0.221560000000     0.052340000000    -0.394716   
O250     O      0.734500000000     0.224030000000     0.928040000000    -0.39396    
O251     O      0.789250000000     0.222910000000     0.979560000000    -0.39641    
O252     O      0.696060000000     0.222810000000     0.001010000000    -0.397096   
O253     O      0.725790000000     0.282770000000     0.998600000000    -0.398392   
O254     O      0.819550000000     0.282730000000     0.984720000000    -0.398309   
O255     O      0.768630000000     0.283870000000     0.929080000000    -0.397961   
O256     O      0.776310000000     0.281410000000     0.054250000000    -0.398278   
O257     O      0.971660000000     0.440810000000     0.671340000000    -0.401104   
O258     O      0.972000000000     0.034880000000     0.684700000000    -0.401641   
O259     O      0.972510000000     0.493690000000     0.614820000000    -0.397378   
O260     O      0.971640000000     0.482190000000     0.740170000000    -0.398495   
O261     O      0.531550000000     0.016310000000     0.740970000000    -0.401051   
O262     O      0.532530000000     0.019680000000     0.615720000000    -0.400721   
O263     O      0.531810000000     0.065180000000     0.681320000000    -0.397816   
O264     O      0.531420000000     0.470300000000     0.675770000000    -0.397684   
O265     O      0.970040000000     0.189560000000     0.659810000000    -0.399235   
O266     O      0.969810000000     0.284070000000     0.654510000000    -0.397221   
O267     O      0.969740000000     0.235390000000     0.594710000000    -0.399273   
O268     O      0.969480000000     0.238000000000     0.720160000000    -0.398562   
O269     O      0.529210000000     0.272240000000     0.720130000000    -0.39557    
O270     O      0.529490000000     0.261170000000     0.594780000000    -0.396264   
O271     O      0.529590000000     0.313690000000     0.650540000000    -0.399616   
O272     O      0.529820000000     0.219980000000     0.663750000000    -0.399359   
O273     O      0.719510000000     0.035620000000     0.671160000000    -0.397947   
O274     O      0.718690000000     0.440470000000     0.676170000000    -0.397509   
O275     O      0.716150000000     0.487830000000     0.736050000000    -0.400996   
O276     O      0.720620000000     0.487760000000     0.611000000000    -0.401068   
O277     O      0.780800000000     0.013510000000     0.613300000000    -0.394914   
O278     O      0.776060000000     0.022050000000     0.738680000000    -0.396781   
O279     O      0.778290000000     0.470740000000     0.682720000000    -0.401018   
O280     O      0.779380000000     0.065010000000     0.670100000000    -0.400812   
O281     O      0.723470000000     0.193260000000     0.648820000000    -0.400792   
O282     O      0.722670000000     0.286560000000     0.661040000000    -0.400439   
O283     O      0.724970000000     0.246050000000     0.592540000000    -0.394933   
O284     O      0.722350000000     0.234300000000     0.718340000000    -0.393118   
O285     O      0.782050000000     0.268670000000     0.719550000000    -0.399917   
O286     O      0.784720000000     0.272060000000     0.594260000000    -0.399961   
O287     O      0.782520000000     0.317260000000     0.658830000000    -0.397429   
O288     O      0.783150000000     0.222850000000     0.654390000000    -0.397347   
O289     O      0.509310000000     0.971600000000     0.282930000000    -0.398935   
O290     O      0.512750000000     0.978460000000     0.408410000000    -0.398399   
O291     O      0.963530000000     0.927740000000     0.348580000000    -0.40035    
O292     O      0.558710000000     0.521340000000     0.342630000000    -0.398563   
O293     O      0.528890000000     0.551430000000     0.344960000000    -0.39981    
O294     O      0.933840000000     0.957770000000     0.342780000000    -0.399626   
O295     O      0.978740000000     0.502810000000     0.406600000000    -0.396785   
O296     O      0.985350000000     0.505970000000     0.280990000000    -0.398223   
O297     O      0.985940000000     0.771800000000     0.262660000000    -0.397162   
O298     O      0.989070000000     0.775910000000     0.388290000000    -0.400565   
O299     O      0.534810000000     0.821100000000     0.322700000000    -0.396911   
O300     O      0.940220000000     0.726630000000     0.328980000000    -0.396342   
O301     O      0.970260000000     0.696880000000     0.333690000000    -0.397651   
O302     O      0.564410000000     0.790840000000     0.319250000000    -0.396201   
O303     O      0.523240000000     0.750300000000     0.388630000000    -0.396922   
O304     O      0.511350000000     0.737440000000     0.263650000000    -0.39603    
O305     O      0.757840000000     0.984220000000     0.279260000000    -0.396967   
O306     O      0.773190000000     0.999170000000     0.403740000000    -0.395578   
O307     O      0.718670000000     0.944870000000     0.350180000000    -0.396014   
O308     O      0.812030000000     0.538870000000     0.332050000000    -0.396082   
O309     O      0.782690000000     0.569360000000     0.336120000000    -0.396824   
O310     O      0.688690000000     0.974740000000     0.346410000000    -0.397337   
O311     O      0.738900000000     0.525440000000     0.404170000000    -0.399284   
O312     O      0.731940000000     0.518980000000     0.279020000000    -0.399965   
O313     O      0.733010000000     0.757790000000     0.385750000000    -0.39951    
O314     O      0.732080000000     0.755570000000     0.260240000000    -0.398877   
O315     O      0.685700000000     0.709400000000     0.326080000000    -0.398694   
O316     O      0.779810000000     0.804070000000     0.320730000000    -0.398632   
O317     O      0.809610000000     0.774010000000     0.317140000000    -0.399277   
O318     O      0.716180000000     0.680090000000     0.331010000000    -0.39949    
O319     O      0.757730000000     0.721420000000     0.260860000000    -0.394325   
O320     O      0.767630000000     0.732660000000     0.386420000000    -0.395875   
O321     O      0.986270000000     0.965370000000     0.069900000000    -0.39854    
O322     O      0.977450000000     0.972020000000     0.945550000000    -0.398733   
O323     O      0.529250000000     0.969000000000     0.000130000000    -0.39815    
O324     O      0.935470000000     0.968810000000     0.015420000000    -0.399393   
O325     O      0.965590000000     0.528590000000     0.015640000000    -0.402008   
O326     O      0.559510000000     0.528430000000     0.007570000000    -0.399391   
O327     O      0.511790000000     0.531700000000     0.948990000000    -0.398937   
O328     O      0.512390000000     0.524840000000     0.074280000000    -0.399106   
O329     O      0.522800000000     0.785260000000     0.053860000000    -0.397929   
O330     O      0.524160000000     0.782320000000     0.928150000000    -0.397371   
O331     O      0.975970000000     0.783650000000     0.990260000000    -0.398119   
O332     O      0.570500000000     0.783690000000     0.991810000000    -0.397368   
O333     O      0.540420000000     0.723740000000     0.989270000000    -0.398397   
O334     O      0.946300000000     0.723880000000     0.996270000000    -0.397396   
O335     O      0.989790000000     0.722510000000     0.929920000000    -0.397798   
O336     O      0.997410000000     0.725450000000     0.055770000000    -0.398176   
O337     O      0.764320000000     0.531340000000     0.070670000000    -0.400767   
O338     O      0.764090000000     0.529390000000     0.945380000000    -0.400238   
O339     O      0.716430000000     0.529940000000     0.008880000000    -0.397731   
O340     O      0.811060000000     0.530300000000     0.007230000000    -0.399035   
O341     O      0.780920000000     0.970690000000     0.003260000000    -0.401086   
O342     O      0.687020000000     0.970330000000     0.014130000000    -0.399715   
O343     O      0.729760000000     0.970320000000     0.946080000000    -0.397464   
O344     O      0.739010000000     0.971290000000     0.071550000000    -0.397161   
O345     O      0.750440000000     0.721580000000     0.053030000000    -0.394641   
O346     O      0.734500000000     0.724060000000     0.928730000000    -0.394017   
O347     O      0.789250000000     0.722940000000     0.980230000000    -0.3964     
O348     O      0.696060000000     0.722830000000     0.001680000000    -0.397126   
O349     O      0.725780000000     0.782780000000     0.999260000000    -0.398555   
O350     O      0.819550000000     0.782760000000     0.985420000000    -0.398252   
O351     O      0.768640000000     0.783890000000     0.929780000000    -0.398048   
O352     O      0.776280000000     0.781430000000     0.054950000000    -0.398297   
O353     O      0.971880000000     0.941000000000     0.671370000000    -0.401377   
O354     O      0.971790000000     0.534710000000     0.684350000000    -0.401419   
O355     O      0.972800000000     0.994050000000     0.615110000000    -0.398299   
O356     O      0.971790000000     0.982230000000     0.740270000000    -0.399553   
O357     O      0.531390000000     0.516290000000     0.740770000000    -0.400187   
O358     O      0.532240000000     0.519300000000     0.615390000000    -0.399782   
O359     O      0.531590000000     0.565010000000     0.680880000000    -0.397765   
O360     O      0.531630000000     0.970470000000     0.675860000000    -0.397835   
O361     O      0.969980000000     0.689600000000     0.659830000000    -0.396808   
O362     O      0.969900000000     0.784180000000     0.654620000000    -0.396804   
O363     O      0.969750000000     0.735500000000     0.594790000000    -0.399373   
O364     O      0.969510000000     0.738050000000     0.720240000000    -0.398589   
O365     O      0.529240000000     0.772240000000     0.720210000000    -0.395613   
O366     O      0.529490000000     0.761190000000     0.594840000000    -0.396243   
O367     O      0.529680000000     0.813740000000     0.650640000000    -0.399392   
O368     O      0.529760000000     0.719950000000     0.663770000000    -0.399453   
O369     O      0.719220000000     0.535470000000     0.671530000000    -0.397509   
O370     O      0.719050000000     0.940680000000     0.676180000000    -0.397638   
O371     O      0.716350000000     0.988080000000     0.735770000000    -0.40202    
O372     O      0.721100000000     0.987890000000     0.610890000000    -0.402117   
O373     O      0.780310000000     0.513300000000     0.613230000000    -0.394215   
O374     O      0.775870000000     0.521770000000     0.738780000000    -0.396039   
O375     O      0.778650000000     0.970980000000     0.682880000000    -0.400928   
O376     O      0.779090000000     0.564810000000     0.670270000000    -0.400807   
O377     O      0.723450000000     0.693290000000     0.649510000000    -0.400817   
O378     O      0.722860000000     0.786690000000     0.661760000000    -0.400546   
O379     O      0.725080000000     0.746160000000     0.593260000000    -0.394996   
O380     O      0.722420000000     0.734360000000     0.719040000000    -0.39325    
O381     O      0.782130000000     0.768630000000     0.720270000000    -0.399852   
O382     O      0.784820000000     0.772100000000     0.594990000000    -0.400191   
O383     O      0.782710000000     0.817300000000     0.659580000000    -0.397504   
O384     O      0.783130000000     0.722790000000     0.655070000000    -0.39739    


