data_structure

_audit_creation_method RASPA-1.0
_audit_creation_date 2023-6-4
_audit_author_name 'Poobodin Mano'

_cell_length_a    28.791
_cell_length_b    29.2919
_cell_length_c    20.9825
_cell_angle_alpha 89.9989
_cell_angle_beta  89.9989
_cell_angle_gamma 96.7646
_cell_volume      17572.3

_symmetry_cell_setting          triclinic
_symmetry_space_group_name_Hall 'P 1'
_symmetry_space_group_name_H-M  'P 1'
_symmetry_Int_Tables_number     1

_symmetry_equiv_pos_as_xyz 'x,y,z'

loop_
_atom_site_label
_atom_site_type_symbol
_atom_site_fract_x
_atom_site_fract_y
_atom_site_fract_z
_atom_site_charge
C1       C      0.069450000000     0.433990000000     0.993900000000     0.386616   
C2       C      0.442320000000     0.054210000000     0.006710000000     0.39555    
C3       C      0.065680000000     0.083120000000     0.027430000000     0.409668   
C4       C      0.440560000000     0.425470000000     0.987850000000     0.418696   
C5       C      0.040380000000     0.408120000000     0.508610000000     0.387794   
C6       C      0.431780000000     0.047200000000     0.537510000000     0.402031   
C7       C      0.059150000000     0.033570000000     0.505310000000     0.421846   
C8       C      0.410590000000     0.421710000000     0.533800000000     0.416108   
C9       C      0.252170000000     0.233250000000     0.872780000000     0.468018   
C10      C      0.248190000000     0.250000000000     0.113540000000     0.463382   
C11      C      0.316490000000     0.185870000000     0.005630000000     0.466018   
C12      C      0.192700000000     0.297040000000     0.990550000000     0.457848   
C13      C      0.259130000000     0.232150000000     0.370230000000     0.46726    
C14      C      0.229580000000     0.227880000000     0.611190000000     0.479861   
C15      C      0.304790000000     0.177080000000     0.506100000000     0.449855   
C16      C      0.169340000000     0.276800000000     0.483670000000     0.460987   
C17      C      0.271250000000     0.266310000000     0.766160000000    -0.0108007  
C18      C      0.236830000000     0.183920000000     0.777290000000    -0.0330789  
C19      C      0.237930000000     0.272190000000     0.711210000000    -0.00860434 
C20      C      0.206580000000     0.188690000000     0.716620000000     0.09316    
C21      C      0.278270000000     0.289130000000     0.214780000000    -0.0136416  
C22      C      0.213960000000     0.223700000000     0.216580000000    -0.0332668  
C23      C      0.300600000000     0.267530000000     0.273880000000    -0.00916403 
C24      C      0.244720000000     0.197790000000     0.259750000000     0.100886   
C25      C      0.077150000000     0.341070000000     0.550960000000    -0.01549    
C26      C      0.089390000000     0.366520000000     0.436460000000    -0.0374796  
C27      C      0.092750000000     0.295550000000     0.524710000000    -0.00945505 
C28      C      0.137450000000     0.346860000000     0.442690000000     0.0961889  
C29      C      0.356030000000     0.365030000000     0.589920000000    -0.00164047 
C30      C      0.333080000000     0.401790000000     0.488050000000    -0.0262813  
C31      C      0.342600000000     0.318380000000     0.558980000000    -0.0227502  
C32      C      0.319890000000     0.353940000000     0.459380000000     0.0886551  
C33      C      0.337270000000     0.106620000000     0.472410000000    -0.0107472  
C34      C      0.384850000000     0.162940000000     0.543400000000    -0.0291643  
C35      C      0.353840000000     0.066710000000     0.509480000000    -0.0114563  
C36      C      0.405000000000     0.121640000000     0.578250000000     0.089218   
C37      C      0.140450000000     0.063270000000     0.526170000000     0.00749476 
C38      C      0.097630000000     0.088220000000     0.429930000000    -0.0270266  
C39      C      0.161510000000     0.112430000000     0.534560000000    -0.039081   
C40      C      0.121380000000     0.137340000000     0.439730000000     0.085425   
C41      C      0.096290000000     0.365530000000     0.941410000000    -0.0136672  
C42      C      0.148730000000     0.414860000000     0.014300000000    -0.0367026  
C43      C      0.114480000000     0.321590000000     0.968130000000    -0.0077786  
C44      C      0.173040000000     0.372270000000     0.034940000000     0.0944512  
C45      C      0.409570000000     0.350710000000     0.027090000000     0.00382745 
C46      C      0.384520000000     0.380150000000     0.918710000000    -0.0257639  
C47      C      0.378960000000     0.308600000000     0.005280000000    -0.0265436  
C48      C      0.336150000000     0.352500000000     0.928390000000     0.083886   
C49      C      0.401010000000     0.111020000000     0.948760000000    -0.0149283  
C50      C      0.368370000000     0.076900000000     0.051070000000    -0.0388502  
C51      C      0.389590000000     0.158610000000     0.969260000000    -0.00736073 
C52      C      0.351100000000     0.123890000000     0.068050000000     0.0950886  
C53      C      0.097930000000     0.157630000000     0.984270000000    -0.00413169 
C54      C      0.128800000000     0.126470000000     0.083370000000    -0.0401544  
C55      C      0.142450000000     0.149190000000     0.948710000000    -0.0295722  
C56      C      0.170420000000     0.112930000000     0.045550000000     0.0940934  
C57      C      0.086710000000     0.952830000000     0.009260000000     0.385427   
C58      C      0.441140000000     0.553710000000     0.013770000000     0.39022    
C59      C      0.070070000000     0.564030000000     0.021610000000     0.414453   
C60      C      0.457500000000     0.928380000000     0.994100000000     0.416881   
C61      C      0.038860000000     0.907540000000     0.530150000000     0.387437   
C62      C      0.434190000000     0.547180000000     0.537310000000     0.402562   
C63      C      0.062050000000     0.537710000000     0.515400000000     0.420212   
C64      C      0.409790000000     0.924590000000     0.567280000000     0.415049   
C65      C      0.256230000000     0.739150000000     0.904880000000     0.465307   
C66      C      0.263910000000     0.761100000000     0.144770000000     0.469918   
C67      C      0.323010000000     0.693170000000     0.029840000000     0.47161    
C68      C      0.208910000000     0.814920000000     0.020710000000     0.462295   
C69      C      0.268440000000     0.740420000000     0.403020000000     0.465419   
C70      C      0.235820000000     0.732360000000     0.642670000000     0.479816   
C71      C      0.308960000000     0.680150000000     0.532530000000     0.448919   
C72      C      0.174600000000     0.781550000000     0.515480000000     0.461414   
C73      C      0.276600000000     0.769940000000     0.797680000000    -0.0112247  
C74      C      0.238140000000     0.688950000000     0.810680000000    -0.0327239  
C75      C      0.243960000000     0.776610000000     0.742500000000    -0.00778761 
C76      C      0.210220000000     0.693820000000     0.747690000000     0.0930853  
C77      C      0.296100000000     0.797010000000     0.247150000000    -0.0132874  
C78      C      0.229250000000     0.733580000000     0.246650000000    -0.0354356  
C79      C      0.314010000000     0.775750000000     0.309860000000    -0.00919919 
C80      C      0.257730000000     0.706910000000     0.291560000000     0.101786   
C81      C      0.080630000000     0.846210000000     0.579800000000    -0.0154981  
C82      C      0.090690000000     0.865630000000     0.462950000000    -0.0373929  
C83      C      0.098710000000     0.800500000000     0.558340000000    -0.00968207 
C84      C      0.140400000000     0.849900000000     0.471950000000     0.0963793  
C85      C      0.359770000000     0.868350000000     0.629210000000    -0.0053158  
C86      C      0.329030000000     0.908390000000     0.535340000000    -0.0242833  
C87      C      0.349500000000     0.822890000000     0.593130000000    -0.017218   
C88      C      0.321780000000     0.862720000000     0.499280000000     0.0899638  
C89      C      0.342060000000     0.615050000000     0.483100000000    -0.0110617  
C90      C      0.388420000000     0.661800000000     0.566200000000    -0.0285428  
C91      C      0.358010000000     0.571000000000     0.509900000000    -0.0110666  
C92      C      0.407160000000     0.616720000000     0.591920000000     0.0891873  
C93      C      0.138440000000     0.571410000000     0.554320000000     0.00650631 
C94      C      0.103340000000     0.598270000000     0.452040000000    -0.0270523  
C95      C      0.161640000000     0.620100000000     0.562960000000    -0.0384097  
C96      C      0.127700000000     0.646420000000     0.465050000000     0.0841427  
C97      C      0.118060000000     0.885650000000     0.960880000000    -0.0138102  
C98      C      0.166030000000     0.935320000000     0.038430000000    -0.0370571  
C99      C      0.133460000000     0.841940000000     0.991150000000    -0.00630051 
C100     C      0.192570000000     0.893260000000     0.057370000000     0.0944632  
C101     C      0.427700000000     0.854780000000     0.038650000000     0.0044924  
C102     C      0.398790000000     0.880970000000     0.930460000000    -0.0254336  
C103     C      0.392450000000     0.814190000000     0.024510000000    -0.0301102  
C104     C      0.349580000000     0.856330000000     0.946510000000     0.0810775  
C105     C      0.400840000000     0.614610000000     0.963190000000    -0.0165308  
C106     C      0.373300000000     0.582090000000     0.069280000000    -0.0392595  
C107     C      0.392100000000     0.662780000000     0.985270000000    -0.00602602 
C108     C      0.359010000000     0.630290000000     0.087900000000     0.0949418  
C109     C      0.097230000000     0.644710000000     0.000410000000     0.00235758 
C110     C      0.136660000000     0.598300000000     0.081750000000    -0.0307715  
C111     C      0.145160000000     0.670820000000     0.986810000000    -0.0391025  
C112     C      0.183120000000     0.620820000000     0.056800000000     0.0898775  
C113     C      0.569450000000     0.433990000000     0.993900000000     0.386606   
C114     C      0.942320000000     0.054210000000     0.006710000000     0.395547   
C115     C      0.565680000000     0.083120000000     0.027430000000     0.409673   
C116     C      0.940560000000     0.425470000000     0.987850000000     0.41868    
C117     C      0.540380000000     0.408120000000     0.508610000000     0.387793   
C118     C      0.931770000000     0.047200000000     0.537510000000     0.401852   
C119     C      0.559150000000     0.033570000000     0.505310000000     0.421744   
C120     C      0.910590000000     0.421710000000     0.533800000000     0.416213   
C121     C      0.752160000000     0.233250000000     0.872780000000     0.468019   
C122     C      0.748190000000     0.250000000000     0.113540000000     0.463405   
C123     C      0.816480000000     0.185870000000     0.005630000000     0.465927   
C124     C      0.692700000000     0.297040000000     0.990550000000     0.457728   
C125     C      0.759130000000     0.232150000000     0.370230000000     0.467257   
C126     C      0.729580000000     0.227880000000     0.611190000000     0.479854   
C127     C      0.804790000000     0.177080000000     0.506100000000     0.449801   
C128     C      0.669340000000     0.276800000000     0.483670000000     0.460846   
C129     C      0.771250000000     0.266310000000     0.766160000000    -0.0107994  
C130     C      0.736830000000     0.183920000000     0.777290000000    -0.0331272  
C131     C      0.737930000000     0.272190000000     0.711210000000    -0.00861313 
C132     C      0.706580000000     0.188690000000     0.716620000000     0.0931818  
C133     C      0.778270000000     0.289130000000     0.214780000000    -0.0136401  
C134     C      0.713960000000     0.223700000000     0.216580000000    -0.0332625  
C135     C      0.800600000000     0.267530000000     0.273880000000    -0.00916489 
C136     C      0.744720000000     0.197790000000     0.259750000000     0.100876   
C137     C      0.577150000000     0.341070000000     0.550960000000    -0.0154889  
C138     C      0.589380000000     0.366520000000     0.436460000000    -0.0374674  
C139     C      0.592750000000     0.295550000000     0.524710000000    -0.00946027 
C140     C      0.637450000000     0.346860000000     0.442690000000     0.0961711  
C141     C      0.856030000000     0.365030000000     0.589920000000    -0.00162183 
C142     C      0.833080000000     0.401790000000     0.488050000000    -0.0262807  
C143     C      0.842600000000     0.318380000000     0.558980000000    -0.0227585  
C144     C      0.819900000000     0.353940000000     0.459380000000     0.088636   
C145     C      0.837270000000     0.106620000000     0.472410000000    -0.0107572  
C146     C      0.884840000000     0.162940000000     0.543400000000    -0.0291062  
C147     C      0.853840000000     0.066710000000     0.509480000000    -0.0114313  
C148     C      0.905000000000     0.121640000000     0.578250000000     0.0891885  
C149     C      0.640450000000     0.063270000000     0.526170000000     0.00748941 
C150     C      0.597630000000     0.088220000000     0.429930000000    -0.0270739  
C151     C      0.661510000000     0.112430000000     0.534560000000    -0.0390786  
C152     C      0.621380000000     0.137340000000     0.439730000000     0.0854429  
C153     C      0.596290000000     0.365530000000     0.941410000000    -0.0136675  
C154     C      0.648730000000     0.414860000000     0.014300000000    -0.0367014  
C155     C      0.614480000000     0.321590000000     0.968130000000    -0.00778064 
C156     C      0.673040000000     0.372270000000     0.034940000000     0.0944472  
C157     C      0.909570000000     0.350710000000     0.027090000000     0.00382733 
C158     C      0.884520000000     0.380150000000     0.918710000000    -0.0257808  
C159     C      0.878960000000     0.308600000000     0.005280000000    -0.026546   
C160     C      0.836160000000     0.352500000000     0.928390000000     0.0838831  
C161     C      0.901010000000     0.111020000000     0.948760000000    -0.0149274  
C162     C      0.868370000000     0.076900000000     0.051070000000    -0.0388467  
C163     C      0.889590000000     0.158610000000     0.969260000000    -0.00736764 
C164     C      0.851100000000     0.123890000000     0.068050000000     0.0950712  
C165     C      0.597930000000     0.157630000000     0.984270000000    -0.00412687 
C166     C      0.628790000000     0.126470000000     0.083370000000    -0.0401054  
C167     C      0.642450000000     0.149190000000     0.948710000000    -0.0295882  
C168     C      0.670420000000     0.112930000000     0.045550000000     0.0940799  
C169     C      0.586710000000     0.952830000000     0.009260000000     0.385431   
C170     C      0.941140000000     0.553710000000     0.013770000000     0.390205   
C171     C      0.570070000000     0.564030000000     0.021610000000     0.414496   
C172     C      0.957500000000     0.928380000000     0.994100000000     0.416898   
C173     C      0.538860000000     0.907540000000     0.530150000000     0.387478   
C174     C      0.934190000000     0.547180000000     0.537310000000     0.402566   
C175     C      0.562050000000     0.537710000000     0.515400000000     0.420277   
C176     C      0.909790000000     0.924590000000     0.567280000000     0.415033   
C177     C      0.756230000000     0.739150000000     0.904880000000     0.465307   
C178     C      0.763910000000     0.761100000000     0.144770000000     0.469919   
C179     C      0.823010000000     0.693170000000     0.029840000000     0.471612   
C180     C      0.708910000000     0.814920000000     0.020710000000     0.462295   
C181     C      0.768440000000     0.740420000000     0.403020000000     0.465419   
C182     C      0.735820000000     0.732360000000     0.642670000000     0.479816   
C183     C      0.808960000000     0.680150000000     0.532530000000     0.448919   
C184     C      0.674600000000     0.781550000000     0.515480000000     0.461414   
C185     C      0.776600000000     0.769940000000     0.797680000000    -0.0112249  
C186     C      0.738140000000     0.688950000000     0.810680000000    -0.032724   
C187     C      0.743960000000     0.776610000000     0.742500000000    -0.00778757 
C188     C      0.710220000000     0.693820000000     0.747690000000     0.0930854  
C189     C      0.796100000000     0.797010000000     0.247150000000    -0.0132824  
C190     C      0.729250000000     0.733580000000     0.246650000000    -0.0354135  
C191     C      0.814010000000     0.775750000000     0.309860000000    -0.00921611 
C192     C      0.757740000000     0.706910000000     0.291560000000     0.101773   
C193     C      0.580640000000     0.846210000000     0.579800000000    -0.0155038  
C194     C      0.590690000000     0.865630000000     0.462950000000    -0.0373903  
C195     C      0.598710000000     0.800500000000     0.558340000000    -0.00967804 
C196     C      0.640400000000     0.849900000000     0.471950000000     0.0963792  
C197     C      0.859770000000     0.868350000000     0.629210000000    -0.00531564 
C198     C      0.829030000000     0.908390000000     0.535340000000    -0.0242848  
C199     C      0.849500000000     0.822890000000     0.593130000000    -0.0172185  
C200     C      0.821780000000     0.862720000000     0.499280000000     0.0899637  
C201     C      0.842060000000     0.615050000000     0.483100000000    -0.0110621  
C202     C      0.888420000000     0.661800000000     0.566200000000    -0.0285442  
C203     C      0.858010000000     0.571000000000     0.509900000000    -0.0110662  
C204     C      0.907160000000     0.616720000000     0.591920000000     0.0891869  
C205     C      0.638440000000     0.571410000000     0.554320000000     0.00650851 
C206     C      0.603340000000     0.598270000000     0.452040000000    -0.0270468  
C207     C      0.661640000000     0.620100000000     0.562960000000    -0.0384105  
C208     C      0.627700000000     0.646420000000     0.465050000000     0.0841412  
C209     C      0.618060000000     0.885650000000     0.960880000000    -0.01381    
C210     C      0.666030000000     0.935320000000     0.038430000000    -0.0370571  
C211     C      0.633460000000     0.841940000000     0.991150000000    -0.00630052 
C212     C      0.692570000000     0.893260000000     0.057370000000     0.0944632  
C213     C      0.927700000000     0.854780000000     0.038650000000     0.00449137 
C214     C      0.898790000000     0.880970000000     0.930460000000    -0.0254325  
C215     C      0.892450000000     0.814190000000     0.024510000000    -0.0301095  
C216     C      0.849580000000     0.856330000000     0.946510000000     0.0810779  
C217     C      0.900840000000     0.614610000000     0.963190000000    -0.0165407  
C218     C      0.873300000000     0.582090000000     0.069280000000    -0.0392604  
C219     C      0.892100000000     0.662780000000     0.985270000000    -0.006002   
C220     C      0.859010000000     0.630290000000     0.087900000000     0.0949426  
C221     C      0.597230000000     0.644710000000     0.000410000000     0.00237427 
C222     C      0.636660000000     0.598300000000     0.081750000000    -0.0307922  
C223     C      0.645170000000     0.670820000000     0.986810000000    -0.0391096  
C224     C      0.683120000000     0.620820000000     0.056800000000     0.0898817  
Cu1      Cu     0.517570000000     0.008570000000     0.950970000000     0.852385   
Cu2      Cu     0.004310000000     0.487810000000     0.062410000000     0.863206   
Cu3      Cu     0.475820000000     0.972020000000     0.478670000000     0.883415   
Cu4      Cu     0.993250000000     0.476170000000     0.582510000000     0.836126   
Cu5      Cu     0.288090000000     0.274210000000     0.987840000000     1.17351    
Cu6      Cu     0.219830000000     0.203530000000     0.998200000000     1.12444    
Cu7      Cu     0.269430000000     0.267480000000     0.495180000000     1.15829    
Cu8      Cu     0.207360000000     0.190260000000     0.485000000000     1.1327     
Cu9      Cu     0.507130000000     0.500940000000     0.946000000000     0.85111    
Cu10     Cu     0.011260000000     0.999640000000     0.067790000000     0.858826   
Cu11     Cu     0.481900000000     0.479530000000     0.466020000000     0.883901   
Cu12     Cu     0.995030000000     0.982880000000     0.592840000000     0.836527   
Cu13     Cu     0.299720000000     0.784480000000     0.017720000000     1.16694    
Cu14     Cu     0.226480000000     0.717070000000     0.030780000000     1.15146    
Cu15     Cu     0.275180000000     0.772330000000     0.527800000000     1.16291    
Cu16     Cu     0.213050000000     0.696000000000     0.515410000000     1.12638    
Cu17     Cu     0.017570000000     0.008570000000     0.950970000000     0.852307   
Cu18     Cu     0.504310000000     0.487810000000     0.062410000000     0.863224   
Cu19     Cu     0.975830000000     0.972020000000     0.478670000000     0.883423   
Cu20     Cu     0.493250000000     0.476170000000     0.582510000000     0.836085   
Cu21     Cu     0.788090000000     0.274210000000     0.987840000000     1.17361    
Cu22     Cu     0.719820000000     0.203530000000     0.998200000000     1.12456    
Cu23     Cu     0.769430000000     0.267480000000     0.495180000000     1.15827    
Cu24     Cu     0.707360000000     0.190260000000     0.485000000000     1.13268    
Cu25     Cu     0.007140000000     0.500940000000     0.946000000000     0.851076   
Cu26     Cu     0.511260000000     0.999640000000     0.067790000000     0.858837   
Cu27     Cu     0.981900000000     0.479530000000     0.466020000000     0.883932   
Cu28     Cu     0.495030000000     0.982880000000     0.592840000000     0.836469   
Cu29     Cu     0.799720000000     0.784480000000     0.017720000000     1.16694    
Cu30     Cu     0.726480000000     0.717070000000     0.030780000000     1.15146    
Cu31     Cu     0.775180000000     0.772330000000     0.527800000000     1.16291    
Cu32     Cu     0.713050000000     0.696000000000     0.515410000000     1.12638    
H1       H      0.205180000000     0.283030000000     0.731300000000     0.0439768  
H2       H      0.278220000000     0.299600000000     0.791840000000     0.0522174  
H3       H      0.171870000000     0.196850000000     0.733820000000     0.0337555  
H4       H      0.217020000000     0.159340000000     0.810620000000     0.0678645  
H5       H      0.253850000000     0.300740000000     0.680500000000     0.0474744  
H6       H      0.304940000000     0.257680000000     0.746240000000     0.0434224  
H7       H      0.269280000000     0.169020000000     0.764230000000     0.0667355  
H8       H      0.331330000000     0.251320000000     0.256750000000     0.0472966  
H9       H      0.306460000000     0.306510000000     0.184080000000     0.0568117  
H10      H      0.272900000000     0.186700000000     0.228600000000     0.0548457  
H11      H      0.190070000000     0.199620000000     0.187590000000     0.0812444  
H12      H      0.314170000000     0.295360000000     0.307180000000     0.0639378  
H13      H      0.257650000000     0.316230000000     0.232770000000     0.0660565  
H14      H      0.191760000000     0.243850000000     0.246510000000     0.0780335  
H15      H      0.100390000000     0.273250000000     0.565410000000     0.0477587  
H16      H      0.105020000000     0.357980000000     0.582570000000     0.0485774  
H17      H      0.161840000000     0.373450000000     0.467320000000     0.0488359  
H18      H      0.094480000000     0.399510000000     0.409680000000     0.0717652  
H19      H      0.063380000000     0.276900000000     0.497290000000     0.0560585  
H20      H      0.045280000000     0.333010000000     0.580720000000     0.0464221  
H21      H      0.064550000000     0.342390000000     0.408530000000     0.071049   
H22      H      0.373510000000     0.306230000000     0.535380000000     0.0436484  
H23      H      0.385670000000     0.362800000000     0.623360000000     0.0426032  
H24      H      0.351350000000     0.342400000000     0.436120000000     0.0357983  
H25      H      0.345440000000     0.426850000000     0.450110000000     0.067903   
H26      H      0.330530000000     0.293210000000     0.596570000000     0.0419271  
H27      H      0.325560000000     0.374760000000     0.617190000000     0.0439209  
H28      H      0.301880000000     0.414180000000     0.510490000000     0.0638608  
H29      H      0.328130000000     0.057070000000     0.548170000000     0.0483773  
H30      H      0.301430000000     0.095790000000     0.454080000000     0.057518   
H31      H      0.383100000000     0.113840000000     0.621540000000     0.0397478  
H32      H      0.380940000000     0.190720000000     0.578450000000     0.0614686  
H33      H      0.353050000000     0.036430000000     0.477330000000     0.0512036  
H34      H      0.360460000000     0.113550000000     0.430270000000     0.053391   
H35      H      0.410050000000     0.177560000000     0.506560000000     0.0676939  
H36      H      0.139470000000     0.130820000000     0.567070000000     0.063795   
H37      H      0.135060000000     0.046680000000     0.573700000000     0.0529899  
H38      H      0.098090000000     0.157100000000     0.468590000000     0.0397756  
H39      H      0.061670000000     0.090210000000     0.411320000000     0.0645549  
H40      H      0.196480000000     0.111470000000     0.556140000000     0.0664085  
H41      H      0.165520000000     0.044480000000     0.499210000000     0.0476544  
H42      H      0.116740000000     0.069810000000     0.393810000000     0.0722807  
H43      H      0.091060000000     0.307950000000     0.007590000000     0.0439819  
H44      H      0.059040000000     0.357380000000     0.927040000000     0.039248   
H45      H      0.157210000000     0.361750000000     0.081930000000     0.0407748  
H46      H      0.148080000000     0.438860000000     0.055360000000     0.0679971  
H47      H      0.112310000000     0.295010000000     0.930030000000     0.0411102  
H48      H      0.116920000000     0.376740000000     0.898190000000     0.0516128  
H49      H      0.169750000000     0.434050000000     0.976390000000     0.0718247  
H50      H      0.395440000000     0.291610000000     0.965100000000     0.0407395  
H51      H      0.445660000000     0.341980000000     0.035610000000     0.0372757  
H52      H      0.331250000000     0.330280000000     0.885480000000     0.0280668  
H53      H      0.405690000000     0.360660000000     0.886370000000     0.042288   
H54      H      0.373570000000     0.284190000000     0.045810000000     0.0376508  
H55      H      0.396210000000     0.362790000000     0.073160000000     0.0564419  
H56      H      0.380610000000     0.413230000000     0.894250000000     0.062646   
H57      H      0.420240000000     0.176470000000     0.995090000000     0.0410055  
H58      H      0.432870000000     0.115690000000     0.918370000000     0.0488311  
H59      H      0.379410000000     0.141710000000     0.098530000000     0.0366086  
H60      H      0.378300000000     0.059870000000     0.095590000000     0.074395   
H61      H      0.383920000000     0.178860000000     0.925650000000     0.0444947  
H62      H      0.371620000000     0.094470000000     0.919270000000     0.0526988  
H63      H      0.339510000000     0.053820000000     0.028800000000     0.0780589  
H64      H      0.136520000000     0.116540000000     0.921330000000     0.0585373  
H65      H      0.067630000000     0.154340000000     0.950960000000     0.0408104  
H66      H      0.159180000000     0.079020000000     0.022770000000     0.0379584  
H67      H      0.120610000000     0.102470000000     0.124050000000     0.0724169  
H68      H      0.150950000000     0.177320000000     0.913860000000     0.0386586  
H69      H      0.102300000000     0.193160000000     0.003760000000     0.0414429  
H70      H      0.136720000000     0.162010000000     0.102220000000     0.0632772  
H71      H      0.211390000000     0.788190000000     0.762070000000     0.0436288  
H72      H      0.284970000000     0.803430000000     0.822400000000     0.0526873  
H73      H      0.175170000000     0.702690000000     0.762300000000     0.0331594  
H74      H      0.215960000000     0.666350000000     0.844010000000     0.0660498  
H75      H      0.260770000000     0.804920000000     0.712090000000     0.0476086  
H76      H      0.309720000000     0.759390000000     0.778430000000     0.043737   
H77      H      0.269600000000     0.671520000000     0.800700000000     0.0668719  
H78      H      0.345640000000     0.759190000000     0.297460000000     0.0466768  
H79      H      0.326540000000     0.811260000000     0.217790000000     0.0539268  
H80      H      0.286940000000     0.695590000000     0.262520000000     0.0525417  
H81      H      0.205840000000     0.709610000000     0.216830000000     0.0881125  
H82      H      0.325560000000     0.804000000000     0.343640000000     0.0630047  
H83      H      0.277300000000     0.826510000000     0.261100000000     0.0628425  
H84      H      0.206610000000     0.754330000000     0.274950000000     0.0797293  
H85      H      0.108460000000     0.781370000000     0.601190000000     0.0453116  
H86      H      0.108160000000     0.866520000000     0.608580000000     0.048397   
H87      H      0.162420000000     0.878580000000     0.496020000000     0.0483139  
H88      H      0.093530000000     0.897130000000     0.432900000000     0.0706739  
H89      H      0.069870000000     0.778660000000     0.533940000000     0.0552359  
H90      H      0.049580000000     0.838320000000     0.611140000000     0.0446925  
H91      H      0.067530000000     0.838600000000     0.437360000000     0.0713227  
H92      H      0.381340000000     0.814700000000     0.567550000000     0.0417173  
H93      H      0.391070000000     0.867340000000     0.660070000000     0.0413256  
H94      H      0.355010000000     0.856910000000     0.474810000000     0.0410004  
H95      H      0.337080000000     0.937690000000     0.501700000000     0.0628693  
H96      H      0.339550000000     0.794880000000     0.627770000000     0.0401251  
H97      H      0.329150000000     0.873280000000     0.659690000000     0.0438433  
H98      H      0.296740000000     0.913890000000     0.562000000000     0.0619913  
H99      H      0.331210000000     0.556150000000     0.544640000000     0.0481013  
H100     H      0.306550000000     0.606850000000     0.462190000000     0.058302   
H101     H      0.383980000000     0.604160000000     0.632290000000     0.0406155  
H102     H      0.384180000000     0.685550000000     0.606610000000     0.0612862  
H103     H      0.358710000000     0.545600000000     0.470580000000     0.0512005  
H104     H      0.365990000000     0.627160000000     0.443400000000     0.052729   
H105     H      0.414380000000     0.679850000000     0.532850000000     0.0674294  
H106     H      0.139410000000     0.640200000000     0.592870000000     0.0606426  
H107     H      0.127730000000     0.556900000000     0.601790000000     0.0540965  
H108     H      0.103800000000     0.666270000000     0.492740000000     0.0405528  
H109     H      0.068580000000     0.601960000000     0.430540000000     0.0655312  
H110     H      0.195170000000     0.617650000000     0.587880000000     0.0661853  
H111     H      0.164420000000     0.550140000000     0.534100000000     0.0470068  
H112     H      0.123380000000     0.580090000000     0.416690000000     0.0729464  
H113     H      0.108400000000     0.829980000000     0.029650000000     0.045082   
H114     H      0.081990000000     0.877640000000     0.941680000000     0.0413313  
H115     H      0.179990000000     0.883770000000     0.106330000000     0.040326   
H116     H      0.162190000000     0.957030000000     0.081220000000     0.0691759  
H117     H      0.131600000000     0.814470000000     0.954310000000     0.0424857  
H118     H      0.141880000000     0.896440000000     0.920490000000     0.053691   
H119     H      0.187930000000     0.957460000000     0.004250000000     0.0727571  
H120     H      0.404820000000     0.793500000000     0.984780000000     0.0432478  
H121     H      0.463080000000     0.843440000000     0.043490000000     0.0358077  
H122     H      0.342300000000     0.830820000000     0.907570000000     0.0265979  
H123     H      0.416820000000     0.858750000000     0.897920000000     0.0418709  
H124     H      0.387760000000     0.792470000000     0.067930000000     0.0406021  
H125     H      0.418890000000     0.870010000000     0.085110000000     0.055903   
H126     H      0.395540000000     0.913320000000     0.903830000000     0.0618543  
H127     H      0.424500000000     0.679800000000     0.008040000000     0.0407292  
H128     H      0.431140000000     0.618330000000     0.929960000000     0.0495091  
H129     H      0.390050000000     0.647540000000     0.113940000000     0.0357939  
H130     H      0.385770000000     0.565330000000     0.112560000000     0.0720976  
H131     H      0.384660000000     0.683310000000     0.942600000000     0.0427825  
H132     H      0.369680000000     0.599070000000     0.936190000000     0.0533588  
H133     H      0.342130000000     0.559740000000     0.051600000000     0.0766096  
H134     H      0.160330000000     0.655530000000     0.944190000000     0.0521946  
H135     H      0.076740000000     0.640040000000     0.955440000000     0.0423161  
H136     H      0.191240000000     0.602560000000     0.012080000000     0.0369646  
H137     H      0.139970000000     0.562060000000     0.095600000000     0.0651156  
H138     H      0.140390000000     0.706790000000     0.974990000000     0.0403558  
H139     H      0.078050000000     0.665780000000     0.033110000000     0.0398917  
H140     H      0.126240000000     0.617080000000     0.124600000000     0.0694206  
H141     H      0.705180000000     0.283030000000     0.731300000000     0.043981   
H142     H      0.778220000000     0.299600000000     0.791840000000     0.0522172  
H143     H      0.671870000000     0.196850000000     0.733820000000     0.0337533  
H144     H      0.717020000000     0.159340000000     0.810620000000     0.0678739  
H145     H      0.753850000000     0.300740000000     0.680500000000     0.0474763  
H146     H      0.804940000000     0.257680000000     0.746240000000     0.0434238  
H147     H      0.769270000000     0.169020000000     0.764230000000     0.0667566  
H148     H      0.831330000000     0.251320000000     0.256750000000     0.0472991  
H149     H      0.806460000000     0.306510000000     0.184080000000     0.0568126  
H150     H      0.772900000000     0.186700000000     0.228600000000     0.0548477  
H151     H      0.690070000000     0.199620000000     0.187590000000     0.0812448  
H152     H      0.814170000000     0.295360000000     0.307180000000     0.0639399  
H153     H      0.757650000000     0.316230000000     0.232770000000     0.0660565  
H154     H      0.691760000000     0.243850000000     0.246510000000     0.0780324  
H155     H      0.600390000000     0.273250000000     0.565410000000     0.0477633  
H156     H      0.605020000000     0.357980000000     0.582570000000     0.0485782  
H157     H      0.661840000000     0.373450000000     0.467320000000     0.0488388  
H158     H      0.594480000000     0.399510000000     0.409680000000     0.0717629  
H159     H      0.563380000000     0.276900000000     0.497290000000     0.0560618  
H160     H      0.545280000000     0.333010000000     0.580720000000     0.046424   
H161     H      0.564550000000     0.342390000000     0.408530000000     0.0710507  
H162     H      0.873510000000     0.306230000000     0.535380000000     0.0436553  
H163     H      0.885670000000     0.362800000000     0.623360000000     0.0426039  
H164     H      0.851350000000     0.342400000000     0.436120000000     0.0357968  
H165     H      0.845440000000     0.426850000000     0.450110000000     0.0679128  
H166     H      0.830530000000     0.293210000000     0.596570000000     0.0419276  
H167     H      0.825560000000     0.374760000000     0.617190000000     0.0439166  
H168     H      0.801880000000     0.414180000000     0.510490000000     0.0638623  
H169     H      0.828130000000     0.057070000000     0.548170000000     0.0483703  
H170     H      0.801430000000     0.095790000000     0.454080000000     0.0575213  
H171     H      0.883100000000     0.113840000000     0.621540000000     0.0397526  
H172     H      0.880940000000     0.190720000000     0.578450000000     0.0614577  
H173     H      0.853050000000     0.036430000000     0.477330000000     0.0511938  
H174     H      0.860460000000     0.113550000000     0.430270000000     0.0533951  
H175     H      0.910050000000     0.177560000000     0.506560000000     0.0676794  
H176     H      0.639470000000     0.130820000000     0.567070000000     0.0637956  
H177     H      0.635060000000     0.046680000000     0.573700000000     0.0529926  
H178     H      0.598080000000     0.157100000000     0.468590000000     0.0397791  
H179     H      0.561680000000     0.090210000000     0.411320000000     0.06457    
H180     H      0.696480000000     0.111470000000     0.556140000000     0.0664082  
H181     H      0.665520000000     0.044480000000     0.499210000000     0.0476561  
H182     H      0.616740000000     0.069810000000     0.393810000000     0.0722891  
H183     H      0.591060000000     0.307950000000     0.007590000000     0.0439837  
H184     H      0.559040000000     0.357380000000     0.927040000000     0.0392495  
H185     H      0.657210000000     0.361750000000     0.081930000000     0.0407758  
H186     H      0.648080000000     0.438860000000     0.055360000000     0.0679978  
H187     H      0.612310000000     0.295010000000     0.930030000000     0.041112   
H188     H      0.616920000000     0.376740000000     0.898190000000     0.0516138  
H189     H      0.669750000000     0.434050000000     0.976390000000     0.0718272  
H190     H      0.895440000000     0.291610000000     0.965100000000     0.0407423  
H191     H      0.945660000000     0.341980000000     0.035610000000     0.0372825  
H192     H      0.831250000000     0.330280000000     0.885480000000     0.0280679  
H193     H      0.905690000000     0.360660000000     0.886370000000     0.0422946  
H194     H      0.873570000000     0.284190000000     0.045810000000     0.0376528  
H195     H      0.896210000000     0.362790000000     0.073160000000     0.0564444  
H196     H      0.880610000000     0.413230000000     0.894250000000     0.0626518  
H197     H      0.920240000000     0.176470000000     0.995090000000     0.041014   
H198     H      0.932870000000     0.115690000000     0.918370000000     0.0488362  
H199     H      0.879410000000     0.141710000000     0.098530000000     0.0366161  
H200     H      0.878300000000     0.059870000000     0.095590000000     0.0743959  
H201     H      0.883920000000     0.178860000000     0.925650000000     0.0445044  
H202     H      0.871620000000     0.094470000000     0.919270000000     0.0527     
H203     H      0.839510000000     0.053820000000     0.028800000000     0.0780567  
H204     H      0.636520000000     0.116540000000     0.921330000000     0.0585421  
H205     H      0.567630000000     0.154340000000     0.950960000000     0.0408101  
H206     H      0.659180000000     0.079020000000     0.022770000000     0.0379618  
H207     H      0.620600000000     0.102470000000     0.124050000000     0.0724052  
H208     H      0.650950000000     0.177320000000     0.913860000000     0.0386474  
H209     H      0.602300000000     0.193160000000     0.003760000000     0.0414347  
H210     H      0.636720000000     0.162010000000     0.102220000000     0.0632587  
H211     H      0.711390000000     0.788190000000     0.762070000000     0.043629   
H212     H      0.784970000000     0.803430000000     0.822400000000     0.0526877  
H213     H      0.675170000000     0.702690000000     0.762300000000     0.0331599  
H214     H      0.715960000000     0.666350000000     0.844010000000     0.06605    
H215     H      0.760770000000     0.804920000000     0.712090000000     0.0476087  
H216     H      0.809720000000     0.759390000000     0.778430000000     0.043738   
H217     H      0.769600000000     0.671520000000     0.800700000000     0.0668724  
H218     H      0.845640000000     0.759190000000     0.297460000000     0.0466852  
H219     H      0.826540000000     0.811260000000     0.217790000000     0.0539275  
H220     H      0.786940000000     0.695590000000     0.262520000000     0.0525332  
H221     H      0.705840000000     0.709610000000     0.216830000000     0.0881087  
H222     H      0.825550000000     0.804000000000     0.343640000000     0.0630167  
H223     H      0.777300000000     0.826510000000     0.261100000000     0.0628407  
H224     H      0.706610000000     0.754330000000     0.274950000000     0.0797256  
H225     H      0.608460000000     0.781370000000     0.601190000000     0.0453114  
H226     H      0.608160000000     0.866520000000     0.608580000000     0.0484013  
H227     H      0.662420000000     0.878580000000     0.496020000000     0.0483144  
H228     H      0.593530000000     0.897130000000     0.432900000000     0.0706783  
H229     H      0.569870000000     0.778660000000     0.533940000000     0.0552355  
H230     H      0.549580000000     0.838320000000     0.611140000000     0.0446925  
H231     H      0.567530000000     0.838600000000     0.437360000000     0.0713224  
H232     H      0.881340000000     0.814700000000     0.567550000000     0.0417212  
H233     H      0.891070000000     0.867340000000     0.660070000000     0.0413287  
H234     H      0.855010000000     0.856910000000     0.474810000000     0.0410025  
H235     H      0.837090000000     0.937690000000     0.501700000000     0.0628714  
H236     H      0.839550000000     0.794880000000     0.627770000000     0.0401262  
H237     H      0.829150000000     0.873280000000     0.659690000000     0.0438433  
H238     H      0.796740000000     0.913890000000     0.562000000000     0.0619929  
H239     H      0.831210000000     0.556150000000     0.544640000000     0.0481015  
H240     H      0.806550000000     0.606850000000     0.462190000000     0.0583026  
H241     H      0.883980000000     0.604160000000     0.632290000000     0.0406167  
H242     H      0.884180000000     0.685550000000     0.606610000000     0.0612878  
H243     H      0.858710000000     0.545600000000     0.470580000000     0.0512021  
H244     H      0.865990000000     0.627160000000     0.443400000000     0.0527317  
H245     H      0.914380000000     0.679850000000     0.532850000000     0.0674319  
H246     H      0.639410000000     0.640200000000     0.592870000000     0.060643   
H247     H      0.627730000000     0.556900000000     0.601790000000     0.0540966  
H248     H      0.603800000000     0.666270000000     0.492740000000     0.0405531  
H249     H      0.568580000000     0.601960000000     0.430540000000     0.0655304  
H250     H      0.695170000000     0.617650000000     0.587880000000     0.0661856  
H251     H      0.664420000000     0.550140000000     0.534100000000     0.0470073  
H252     H      0.623380000000     0.580090000000     0.416690000000     0.0729486  
H253     H      0.608400000000     0.829980000000     0.029650000000     0.0450835  
H254     H      0.581990000000     0.877640000000     0.941680000000     0.0413354  
H255     H      0.679990000000     0.883770000000     0.106330000000     0.0403263  
H256     H      0.662190000000     0.957030000000     0.081220000000     0.0691758  
H257     H      0.631600000000     0.814470000000     0.954310000000     0.0424865  
H258     H      0.641880000000     0.896440000000     0.920490000000     0.0536916  
H259     H      0.687930000000     0.957460000000     0.004250000000     0.0727569  
H260     H      0.904820000000     0.793500000000     0.984780000000     0.0432501  
H261     H      0.963080000000     0.843440000000     0.043490000000     0.0358141  
H262     H      0.842300000000     0.830820000000     0.907570000000     0.0265983  
H263     H      0.916820000000     0.858750000000     0.897920000000     0.0418738  
H264     H      0.887760000000     0.792470000000     0.067930000000     0.0406042  
H265     H      0.918890000000     0.870010000000     0.085110000000     0.0559064  
H266     H      0.895540000000     0.913320000000     0.903830000000     0.0618615  
H267     H      0.924510000000     0.679800000000     0.008040000000     0.0407224  
H268     H      0.931140000000     0.618330000000     0.929960000000     0.0495149  
H269     H      0.890050000000     0.647540000000     0.113940000000     0.0357969  
H270     H      0.885770000000     0.565330000000     0.112560000000     0.0721002  
H271     H      0.884660000000     0.683310000000     0.942600000000     0.0427789  
H272     H      0.869680000000     0.599070000000     0.936190000000     0.0533618  
H273     H      0.842130000000     0.559740000000     0.051600000000     0.0766105  
H274     H      0.660330000000     0.655530000000     0.944190000000     0.0521987  
H275     H      0.576740000000     0.640040000000     0.955440000000     0.0423146  
H276     H      0.691240000000     0.602560000000     0.012080000000     0.0369626  
H277     H      0.639970000000     0.562060000000     0.095600000000     0.065121   
H278     H      0.640390000000     0.706790000000     0.974990000000     0.0403558  
H279     H      0.578050000000     0.665780000000     0.033110000000     0.0398921  
H280     H      0.626240000000     0.617080000000     0.124600000000     0.0694285  
N1       N      0.226440000000     0.228280000000     0.676720000000    -0.183092   
N2       N      0.251240000000     0.228700000000     0.807800000000    -0.17453    
N3       N      0.199090000000     0.145150000000     0.680640000000    -0.0251591  
N4       N      0.267750000000     0.231630000000     0.305400000000    -0.176849   
N5       N      0.246110000000     0.255350000000     0.178450000000    -0.166446   
N6       N      0.220630000000     0.156240000000     0.289690000000    -0.0256076  
N7       N      0.133810000000     0.304680000000     0.482380000000    -0.17395    
N8       N      0.068230000000     0.373280000000     0.499390000000    -0.157576   
N9       N      0.157490000000     0.337890000000     0.379810000000    -0.0188412  
N10      N      0.305380000000     0.322450000000     0.512120000000    -0.234323   
N11      N      0.367650000000     0.398270000000     0.538570000000    -0.169915   
N12      N      0.282610000000     0.353940000000     0.411250000000    -0.0289044  
N13      N      0.400270000000     0.079400000000     0.538510000000    -0.16478    
N14      N      0.339750000000     0.148730000000     0.511340000000    -0.166828   
N15      N      0.453820000000     0.133910000000     0.599040000000    -0.0227165  
N16      N      0.166770000000     0.135850000000     0.472900000000    -0.21581    
N17      N      0.097240000000     0.062320000000     0.489360000000    -0.168646   
N18      N      0.127740000000     0.157210000000     0.375910000000    -0.0377794  
N19      N      0.162700000000     0.330870000000     0.992810000000    -0.172756   
N20      N      0.101440000000     0.402710000000     0.988850000000    -0.156576   
N21      N      0.223790000000     0.385260000000     0.045980000000    -0.0220403  
N22      N      0.334440000000     0.323090000000     0.985980000000    -0.227741   
N23      N      0.410070000000     0.387430000000     0.979290000000    -0.164434   
N24      N      0.299480000000     0.384100000000     0.930780000000    -0.0336205  
N25      N      0.348530000000     0.154550000000     0.011620000000    -0.179665   
N26      N      0.407010000000     0.081960000000     0.004860000000    -0.158051   
N27      N      0.307450000000     0.118410000000     0.106050000000    -0.0193487  
N28      N      0.181530000000     0.146970000000     0.993510000000    -0.221784   
N29      N      0.090810000000     0.124630000000     0.036880000000    -0.16722    
N30      N      0.209970000000     0.104640000000     0.086440000000    -0.0316583  
N31      N      0.231940000000     0.732760000000     0.708120000000    -0.183042   
N32      N      0.254580000000     0.733770000000     0.840010000000    -0.173928   
N33      N      0.203170000000     0.650090000000     0.712110000000    -0.0254615  
N34      N      0.279170000000     0.740260000000     0.338790000000    -0.176804   
N35      N      0.263170000000     0.764560000000     0.209980000000    -0.167498   
N36      N      0.231880000000     0.665320000000     0.319140000000    -0.0270324  
N37      N      0.138780000000     0.809100000000     0.514090000000    -0.174328   
N38      N      0.068810000000     0.874160000000     0.524850000000    -0.157939   
N39      N      0.162410000000     0.840860000000     0.410410000000    -0.0186769  
N40      N      0.311360000000     0.826530000000     0.547380000000    -0.236722   
N41      N      0.366440000000     0.905120000000     0.581670000000    -0.169448   
N42      N      0.284460000000     0.861690000000     0.450980000000    -0.0280732  
N43      N      0.403360000000     0.579720000000     0.543090000000    -0.165012   
N44      N      0.343820000000     0.651610000000     0.531600000000    -0.166843   
N45      N      0.455390000000     0.625850000000     0.616440000000    -0.0228274  
N46      N      0.171240000000     0.642690000000     0.501320000000    -0.214879   
N47      N      0.098960000000     0.570400000000     0.510060000000    -0.167041   
N48      N      0.137130000000     0.667400000000     0.402370000000    -0.037777   
N49      N      0.180900000000     0.850410000000     0.018490000000    -0.172953   
N50      N      0.120250000000     0.922790000000     0.008130000000    -0.155778   
N51      N      0.243760000000     0.906940000000     0.062700000000    -0.0215035  
N52      N      0.348490000000     0.831390000000     0.008130000000    -0.222391   
N53      N      0.427910000000     0.889350000000     0.987900000000    -0.164752   
N54      N      0.314310000000     0.889570000000     0.945150000000    -0.0339866  
N55      N      0.353420000000     0.660050000000     0.031530000000    -0.179834   
N56      N      0.408630000000     0.584720000000     0.017860000000    -0.156497   
N57      N      0.318330000000     0.627750000000     0.131820000000    -0.021452   
N58      N      0.176750000000     0.669570000000     0.041960000000    -0.220622   
N59      N      0.101910000000     0.600650000000     0.031600000000    -0.168547   
N60      N      0.218620000000     0.613540000000     0.105180000000    -0.0316006  
N61      N      0.726430000000     0.228280000000     0.676720000000    -0.183094   
N62      N      0.751240000000     0.228700000000     0.807800000000    -0.174525   
N63      N      0.699090000000     0.145150000000     0.680640000000    -0.0251618  
N64      N      0.767750000000     0.231630000000     0.305400000000    -0.176847   
N65      N      0.746110000000     0.255350000000     0.178450000000    -0.166451   
N66      N      0.720620000000     0.156240000000     0.289690000000    -0.0255929  
N67      N      0.633810000000     0.304680000000     0.482380000000    -0.173925   
N68      N      0.568230000000     0.373280000000     0.499390000000    -0.157575   
N69      N      0.657490000000     0.337890000000     0.379810000000    -0.0188402  
N70      N      0.805380000000     0.322450000000     0.512120000000    -0.23431    
N71      N      0.867660000000     0.398270000000     0.538570000000    -0.169967   
N72      N      0.782610000000     0.353940000000     0.411250000000    -0.0288893  
N73      N      0.900260000000     0.079400000000     0.538510000000    -0.164766   
N74      N      0.839750000000     0.148730000000     0.511340000000    -0.166819   
N75      N      0.953820000000     0.133910000000     0.599040000000    -0.0227134  
N76      N      0.666770000000     0.135850000000     0.472900000000    -0.21581    
N77      N      0.597240000000     0.062320000000     0.489360000000    -0.168624   
N78      N      0.627740000000     0.157210000000     0.375910000000    -0.0377798  
N79      N      0.662700000000     0.330870000000     0.992810000000    -0.172736   
N80      N      0.601440000000     0.402710000000     0.988850000000    -0.156574   
N81      N      0.723790000000     0.385260000000     0.045980000000    -0.022034   
N82      N      0.834440000000     0.323090000000     0.985980000000    -0.227749   
N83      N      0.910070000000     0.387430000000     0.979290000000    -0.164428   
N84      N      0.799480000000     0.384100000000     0.930780000000    -0.0336213  
N85      N      0.848530000000     0.154550000000     0.011620000000    -0.179605   
N86      N      0.907010000000     0.081960000000     0.004860000000    -0.15805    
N87      N      0.807450000000     0.118410000000     0.106050000000    -0.0193563  
N88      N      0.681530000000     0.146970000000     0.993510000000    -0.221824   
N89      N      0.590810000000     0.124630000000     0.036880000000    -0.167229   
N90      N      0.709970000000     0.104640000000     0.086440000000    -0.0316498  
N91      N      0.731940000000     0.732760000000     0.708120000000    -0.183042   
N92      N      0.754580000000     0.733770000000     0.840010000000    -0.173928   
N93      N      0.703170000000     0.650090000000     0.712110000000    -0.0254615  
N94      N      0.779170000000     0.740260000000     0.338790000000    -0.176804   
N95      N      0.763170000000     0.764560000000     0.209980000000    -0.167501   
N96      N      0.731880000000     0.665320000000     0.319140000000    -0.0270249  
N97      N      0.638780000000     0.809100000000     0.514090000000    -0.174328   
N98      N      0.568810000000     0.874160000000     0.524850000000    -0.157944   
N99      N      0.662410000000     0.840860000000     0.410410000000    -0.018677   
N100     N      0.811360000000     0.826530000000     0.547380000000    -0.236722   
N101     N      0.866440000000     0.905120000000     0.581670000000    -0.169446   
N102     N      0.784460000000     0.861690000000     0.450980000000    -0.0280734  
N103     N      0.903360000000     0.579720000000     0.543090000000    -0.165012   
N104     N      0.843820000000     0.651610000000     0.531600000000    -0.166842   
N105     N      0.955390000000     0.625850000000     0.616440000000    -0.0228348  
N106     N      0.671240000000     0.642690000000     0.501320000000    -0.214879   
N107     N      0.598960000000     0.570400000000     0.510060000000    -0.16705    
N108     N      0.637130000000     0.667400000000     0.402370000000    -0.0377766  
N109     N      0.680900000000     0.850410000000     0.018490000000    -0.172953   
N110     N      0.620250000000     0.922790000000     0.008130000000    -0.155778   
N111     N      0.743760000000     0.906940000000     0.062700000000    -0.0215035  
N112     N      0.848490000000     0.831390000000     0.008130000000    -0.222391   
N113     N      0.927910000000     0.889350000000     0.987900000000    -0.164752   
N114     N      0.814310000000     0.889570000000     0.945150000000    -0.0339862  
N115     N      0.853420000000     0.660050000000     0.031530000000    -0.179836   
N116     N      0.908630000000     0.584720000000     0.017860000000    -0.156492   
N117     N      0.818330000000     0.627750000000     0.131820000000    -0.0214521  
N118     N      0.676750000000     0.669570000000     0.041960000000    -0.22062    
N119     N      0.601900000000     0.600650000000     0.031600000000    -0.168581   
N120     N      0.718620000000     0.613540000000     0.105180000000    -0.031601   
O1       O      0.053900000000     0.452270000000     0.943510000000    -0.381139   
O2       O      0.464640000000     0.047830000000     0.955330000000    -0.393114   
O3       O      0.060100000000     0.066830000000     0.970690000000    -0.40218    
O4       O      0.454960000000     0.449690000000     0.939500000000    -0.406219   
O5       O      0.456380000000     0.434780000000     0.043860000000    -0.407692   
O6       O      0.050950000000     0.059660000000     0.076050000000    -0.403469   
O7       O      0.453390000000     0.035210000000     0.059250000000    -0.377629   
O8       O      0.055970000000     0.445680000000     0.049390000000    -0.379302   
O9       O      0.024680000000     0.428320000000     0.460030000000    -0.386458   
O10      O      0.434500000000     0.023170000000     0.486910000000    -0.391012   
O11      O      0.030910000000     0.017960000000     0.461360000000    -0.409022   
O12      O      0.425890000000     0.434210000000     0.478590000000    -0.412871   
O13      O      0.433630000000     0.433210000000     0.584540000000    -0.405005   
O14      O      0.052160000000     0.022700000000     0.563750000000    -0.401766   
O15      O      0.455880000000     0.038810000000     0.587380000000    -0.362249   
O16      O      0.030420000000     0.420900000000     0.565350000000    -0.378383   
O17      O      0.271140000000     0.269720000000     0.898590000000    -0.464158   
O18      O      0.282510000000     0.269760000000     0.081470000000    -0.448579   
O19      O      0.326730000000     0.223670000000     0.976900000000    -0.471889   
O20      O      0.236090000000     0.308790000000     0.996360000000    -0.434513   
O21      O      0.178150000000     0.254020000000     0.984060000000    -0.433897   
O22      O      0.275540000000     0.177230000000     0.027080000000    -0.43106    
O23      O      0.216200000000     0.223800000000     0.085180000000    -0.445914   
O24      O      0.234840000000     0.200630000000     0.908030000000    -0.472004   
O25      O      0.283550000000     0.260470000000     0.405910000000    -0.454239   
O26      O      0.249480000000     0.262710000000     0.582530000000    -0.48152    
O27      O      0.313260000000     0.220680000000     0.513190000000    -0.444065   
O28      O      0.211310000000     0.293490000000     0.472200000000    -0.430286   
O29      O      0.160880000000     0.234170000000     0.496350000000    -0.440309   
O30      O      0.263550000000     0.159690000000     0.491710000000    -0.446326   
O31      O      0.212970000000     0.193430000000     0.578410000000    -0.445057   
O32      O      0.226500000000     0.204670000000     0.395290000000    -0.420912   
O33      O      0.240040000000     0.130120000000     0.667900000000    -0.107815   
O34      O      0.174340000000     0.113300000000     0.716070000000    -0.115388   
O35      O      0.174300000000     0.159190000000     0.295610000000    -0.0569227  
O36      O      0.225260000000     0.119830000000     0.253130000000    -0.077937   
O37      O      0.127850000000     0.308010000000     0.347620000000    -0.0942653  
O38      O      0.163640000000     0.376730000000     0.346250000000    -0.0913382  
O39      O      0.248930000000     0.377490000000     0.432460000000    -0.0912619  
O40      O      0.300390000000     0.375270000000     0.359110000000    -0.104691   
O41      O      0.480620000000     0.146430000000     0.548770000000    -0.105866   
O42      O      0.456020000000     0.169720000000     0.638480000000    -0.113662   
O43      O      0.164210000000     0.138250000000     0.349840000000    -0.0596017  
O44      O      0.137790000000     0.202680000000     0.380590000000    -0.0934516  
O45      O      0.245260000000     0.405390000000     0.993430000000    -0.0552913  
O46      O      0.229590000000     0.415520000000     0.093610000000    -0.0960303  
O47      O      0.287270000000     0.390950000000     0.993080000000    -0.0492153  
O48      O      0.262470000000     0.365080000000     0.897640000000    -0.0949394  
O49      O      0.277750000000     0.080850000000     0.087970000000    -0.0545612  
O50      O      0.318100000000     0.112420000000     0.167040000000    -0.0941738  
O51      O      0.222050000000     0.141350000000     0.122510000000    -0.0827149  
O52      O      0.246970000000     0.096570000000     0.049320000000    -0.0589891  
O53      O      0.070310000000     0.966730000000     0.956560000000    -0.384845   
O54      O      0.459910000000     0.546710000000     0.959610000000    -0.386414   
O55      O      0.057680000000     0.552810000000     0.964590000000    -0.400794   
O56      O      0.471060000000     0.951860000000     0.944640000000    -0.402485   
O57      O      0.471640000000     0.940680000000     0.049900000000    -0.407426   
O58      O      0.053400000000     0.541240000000     0.069950000000    -0.406939   
O59      O      0.452780000000     0.531720000000     0.063480000000    -0.378049   
O60      O      0.070170000000     0.965240000000     0.062810000000    -0.374676   
O61      O      0.019240000000     0.921330000000     0.479750000000    -0.38812    
O62      O      0.440000000000     0.529660000000     0.482240000000    -0.389308   
O63      O      0.037630000000     0.526430000000     0.465720000000    -0.410507   
O64      O      0.421260000000     0.929430000000     0.508500000000    -0.412403   
O65      O      0.436360000000     0.941520000000     0.612100000000    -0.404274   
O66      O      0.051760000000     0.519420000000     0.569650000000    -0.399347   
O67      O      0.454670000000     0.532160000000     0.586570000000    -0.365292   
O68      O      0.031660000000     0.926110000000     0.584520000000    -0.377098   
O69      O      0.278480000000     0.774870000000     0.929540000000    -0.46102    
O70      O      0.298360000000     0.779580000000     0.111830000000    -0.448519   
O71      O      0.335800000000     0.732460000000     0.006730000000    -0.474545   
O72      O      0.252220000000     0.824180000000     0.030430000000    -0.435186   
O73      O      0.192470000000     0.772660000000     0.012680000000    -0.440366   
O74      O      0.281120000000     0.684500000000     0.048560000000    -0.431567   
O75      O      0.229900000000     0.737800000000     0.116970000000    -0.460336   
O76      O      0.236230000000     0.708280000000     0.940920000000    -0.475704   
O77      O      0.291890000000     0.768460000000     0.439870000000    -0.457507   
O78      O      0.256090000000     0.767230000000     0.614700000000    -0.48753    
O79      O      0.318030000000     0.723540000000     0.542110000000    -0.440038   
O80      O      0.216610000000     0.798200000000     0.503900000000    -0.427227   
O81      O      0.166280000000     0.739030000000     0.528140000000    -0.444073   
O82      O      0.267370000000     0.663390000000     0.519400000000    -0.446855   
O83      O      0.219290000000     0.698110000000     0.609270000000    -0.441963   
O84      O      0.235140000000     0.712700000000     0.426510000000    -0.415401   
O85      O      0.244260000000     0.634900000000     0.700900000000    -0.105662   
O86      O      0.177740000000     0.618490000000     0.747170000000    -0.113879   
O87      O      0.185850000000     0.669890000000     0.324670000000    -0.054733   
O88      O      0.235360000000     0.629820000000     0.280360000000    -0.0794535  
O89      O      0.134540000000     0.809740000000     0.377680000000    -0.0925618  
O90      O      0.167990000000     0.879340000000     0.376040000000    -0.0922082  
O91      O      0.249950000000     0.884380000000     0.471660000000    -0.0940378  
O92      O      0.301890000000     0.883310000000     0.398860000000    -0.10363    
O93      O      0.483690000000     0.643820000000     0.570350000000    -0.10615    
O94      O      0.456700000000     0.656550000000     0.663410000000    -0.112648   
O95      O      0.174590000000     0.648860000000     0.378540000000    -0.0604137  
O96      O      0.147070000000     0.712740000000     0.408900000000    -0.092973   
O97      O      0.263440000000     0.919370000000     0.005220000000    -0.0545913  
O98      O      0.251900000000     0.942780000000     0.101950000000    -0.0936848  
O99      O      0.304500000000     0.902720000000     0.006110000000    -0.0499036  
O100     O      0.275590000000     0.869170000000     0.917130000000    -0.0996253  
O101     O      0.286220000000     0.590730000000     0.119760000000    -0.0538293  
O102     O      0.333180000000     0.623360000000     0.191390000000    -0.0984927  
O103     O      0.227260000000     0.650370000000     0.142200000000    -0.083519   
O104     O      0.258600000000     0.604540000000     0.075260000000    -0.0627671  
O105     O      0.553900000000     0.452270000000     0.943510000000    -0.381099   
O106     O      0.964640000000     0.047830000000     0.955330000000    -0.393088   
O107     O      0.560100000000     0.066830000000     0.970690000000    -0.402191   
O108     O      0.954960000000     0.449690000000     0.939500000000    -0.40616    
O109     O      0.956380000000     0.434780000000     0.043860000000    -0.40767    
O110     O      0.550950000000     0.059660000000     0.076050000000    -0.403474   
O111     O      0.953390000000     0.035210000000     0.059250000000    -0.377614   
O112     O      0.555970000000     0.445680000000     0.049390000000    -0.379297   
O113     O      0.524680000000     0.428320000000     0.460030000000    -0.386438   
O114     O      0.934500000000     0.023170000000     0.486910000000    -0.390915   
O115     O      0.530900000000     0.017960000000     0.461360000000    -0.408945   
O116     O      0.925880000000     0.434210000000     0.478590000000    -0.412878   
O117     O      0.933630000000     0.433210000000     0.584540000000    -0.40504    
O118     O      0.552160000000     0.022700000000     0.563750000000    -0.401721   
O119     O      0.955890000000     0.038810000000     0.587380000000    -0.362156   
O120     O      0.530420000000     0.420900000000     0.565350000000    -0.378367   
O121     O      0.771140000000     0.269720000000     0.898590000000    -0.46414    
O122     O      0.782510000000     0.269760000000     0.081470000000    -0.448591   
O123     O      0.826730000000     0.223670000000     0.976900000000    -0.471856   
O124     O      0.736100000000     0.308790000000     0.996360000000    -0.434485   
O125     O      0.678150000000     0.254020000000     0.984060000000    -0.433938   
O126     O      0.775530000000     0.177230000000     0.027080000000    -0.431052   
O127     O      0.716200000000     0.223800000000     0.085180000000    -0.445943   
O128     O      0.734840000000     0.200630000000     0.908030000000    -0.472031   
O129     O      0.783550000000     0.260470000000     0.405910000000    -0.454233   
O130     O      0.749480000000     0.262710000000     0.582530000000    -0.48152    
O131     O      0.813270000000     0.220680000000     0.513190000000    -0.443992   
O132     O      0.711320000000     0.293490000000     0.472200000000    -0.430234   
O133     O      0.660880000000     0.234170000000     0.496350000000    -0.440264   
O134     O      0.763550000000     0.159690000000     0.491710000000    -0.446319   
O135     O      0.712970000000     0.193430000000     0.578410000000    -0.445056   
O136     O      0.726500000000     0.204670000000     0.395290000000    -0.420912   
O137     O      0.740040000000     0.130120000000     0.667900000000    -0.107817   
O138     O      0.674340000000     0.113300000000     0.716070000000    -0.115387   
O139     O      0.674300000000     0.159190000000     0.295610000000    -0.0569225  
O140     O      0.725260000000     0.119830000000     0.253130000000    -0.0779418  
O141     O      0.627850000000     0.308010000000     0.347620000000    -0.094264   
O142     O      0.663640000000     0.376730000000     0.346250000000    -0.0913378  
O143     O      0.748930000000     0.377490000000     0.432460000000    -0.0912589  
O144     O      0.800390000000     0.375270000000     0.359110000000    -0.10469    
O145     O      0.980620000000     0.146430000000     0.548770000000    -0.105851   
O146     O      0.956020000000     0.169720000000     0.638480000000    -0.113654   
O147     O      0.664210000000     0.138250000000     0.349840000000    -0.0596045  
O148     O      0.637780000000     0.202680000000     0.380590000000    -0.0934509  
O149     O      0.745250000000     0.405390000000     0.993430000000    -0.055302   
O150     O      0.729590000000     0.415520000000     0.093610000000    -0.0960294  
O151     O      0.787270000000     0.390950000000     0.993080000000    -0.049215   
O152     O      0.762460000000     0.365080000000     0.897640000000    -0.0949341  
O153     O      0.777740000000     0.080850000000     0.087970000000    -0.0545511  
O154     O      0.818100000000     0.112420000000     0.167040000000    -0.0941726  
O155     O      0.722040000000     0.141350000000     0.122510000000    -0.0827223  
O156     O      0.746970000000     0.096570000000     0.049320000000    -0.0589844  
O157     O      0.570310000000     0.966730000000     0.956560000000    -0.384845   
O158     O      0.959910000000     0.546710000000     0.959610000000    -0.386353   
O159     O      0.557680000000     0.552810000000     0.964590000000    -0.40077    
O160     O      0.971050000000     0.951860000000     0.944640000000    -0.402453   
O161     O      0.971640000000     0.940680000000     0.049900000000    -0.40742    
O162     O      0.553400000000     0.541240000000     0.069950000000    -0.406946   
O163     O      0.952780000000     0.531720000000     0.063480000000    -0.378028   
O164     O      0.570170000000     0.965240000000     0.062810000000    -0.374676   
O165     O      0.519250000000     0.921330000000     0.479750000000    -0.388084   
O166     O      0.940000000000     0.529660000000     0.482240000000    -0.3893     
O167     O      0.537640000000     0.526430000000     0.465720000000    -0.410508   
O168     O      0.921260000000     0.929430000000     0.508500000000    -0.412348   
O169     O      0.936360000000     0.941520000000     0.612100000000    -0.404274   
O170     O      0.551760000000     0.519420000000     0.569650000000    -0.399357   
O171     O      0.954670000000     0.532160000000     0.586570000000    -0.365289   
O172     O      0.531660000000     0.926110000000     0.584520000000    -0.377097   
O173     O      0.778480000000     0.774870000000     0.929540000000    -0.46102    
O174     O      0.798360000000     0.779580000000     0.111830000000    -0.448519   
O175     O      0.835800000000     0.732460000000     0.006730000000    -0.474544   
O176     O      0.752220000000     0.824180000000     0.030430000000    -0.435186   
O177     O      0.692470000000     0.772660000000     0.012680000000    -0.440365   
O178     O      0.781120000000     0.684500000000     0.048560000000    -0.431568   
O179     O      0.729900000000     0.737800000000     0.116970000000    -0.460337   
O180     O      0.736230000000     0.708280000000     0.940920000000    -0.475703   
O181     O      0.791890000000     0.768460000000     0.439870000000    -0.457507   
O182     O      0.756090000000     0.767230000000     0.614700000000    -0.48753    
O183     O      0.818030000000     0.723540000000     0.542110000000    -0.440037   
O184     O      0.716610000000     0.798200000000     0.503900000000    -0.427227   
O185     O      0.666280000000     0.739030000000     0.528140000000    -0.444073   
O186     O      0.767370000000     0.663390000000     0.519400000000    -0.446855   
O187     O      0.719290000000     0.698110000000     0.609270000000    -0.441963   
O188     O      0.735140000000     0.712700000000     0.426510000000    -0.415401   
O189     O      0.744260000000     0.634900000000     0.700900000000    -0.105661   
O190     O      0.677740000000     0.618490000000     0.747170000000    -0.113878   
O191     O      0.685850000000     0.669890000000     0.324670000000    -0.0547311  
O192     O      0.735360000000     0.629820000000     0.280360000000    -0.0794531  
O193     O      0.634540000000     0.809740000000     0.377680000000    -0.0925614  
O194     O      0.667990000000     0.879340000000     0.376040000000    -0.0922078  
O195     O      0.749950000000     0.884380000000     0.471660000000    -0.0940368  
O196     O      0.801890000000     0.883310000000     0.398860000000    -0.103629   
O197     O      0.983700000000     0.643820000000     0.570350000000    -0.106132   
O198     O      0.956700000000     0.656550000000     0.663410000000    -0.112637   
O199     O      0.674590000000     0.648860000000     0.378540000000    -0.0604139  
O200     O      0.647070000000     0.712740000000     0.408900000000    -0.0929725  
O201     O      0.763440000000     0.919370000000     0.005220000000    -0.0545913  
O202     O      0.751900000000     0.942780000000     0.101950000000    -0.0936845  
O203     O      0.804500000000     0.902720000000     0.006110000000    -0.0499027  
O204     O      0.775590000000     0.869170000000     0.917130000000    -0.0996252  
O205     O      0.786220000000     0.590730000000     0.119760000000    -0.0538288  
O206     O      0.833180000000     0.623360000000     0.191390000000    -0.09849    
O207     O      0.727260000000     0.650370000000     0.142200000000    -0.0835184  
O208     O      0.758600000000     0.604540000000     0.075260000000    -0.062767   


