data_structure

_audit_creation_method RASPA-1.0
_audit_creation_date 2023-5-19
_audit_author_name 'Poobodin Mano'

_cell_length_a    42.0152
_cell_length_b    43.1872
_cell_length_c    42.6822
_cell_angle_alpha 90
_cell_angle_beta  90
_cell_angle_gamma 90
_cell_volume      77447.7

_symmetry_cell_setting          triclinic
_symmetry_space_group_name_Hall 'P 1'
_symmetry_space_group_name_H-M  'P 1'
_symmetry_Int_Tables_number     1

_symmetry_equiv_pos_as_xyz 'x,y,z'

loop_
_atom_site_label
_atom_site_type_symbol
_atom_site_fract_x
_atom_site_fract_y
_atom_site_fract_z
_atom_site_charge
C1       C      0.003740000000     0.059620000000     0.245780000000     0.397975   
C2       C      0.516160000000     0.437060000000     0.235420000000     0.397431   
C3       C      0.071370000000     0.005020000000     0.232120000000     0.405044   
C4       C      0.446770000000     0.491100000000     0.247410000000     0.399711   
C5       C      0.010420000000     0.187620000000     0.242370000000     0.393442   
C6       C      0.009860000000     0.311020000000     0.244650000000     0.395183   
C7       C      0.023710000000     0.250020000000     0.182670000000     0.399235   
C8       C      0.997060000000     0.248900000000     0.304360000000     0.406129   
C9       C      0.316280000000     0.990770000000     0.261500000000     0.397822   
C10      C      0.190060000000     0.988000000000     0.259340000000     0.397593   
C11      C      0.252960000000     0.986380000000     0.197980000000     0.400537   
C12      C      0.252240000000     0.991370000000     0.321890000000     0.398611   
C13      C      0.253870000000     0.060050000000     0.010530000000     0.406119   
C14      C      0.267080000000     0.438280000000     0.518170000000     0.403307   
C15      C      0.265460000000     0.004370000000     0.076120000000     0.402166   
C16      C      0.256030000000     0.495520000000     0.452540000000     0.403259   
C17      C      0.017780000000     0.244880000000     0.055220000000     0.397616   
C18      C      0.510200000000     0.243380000000     0.430480000000     0.39793    
C19      C      0.077190000000     0.238790000000     0.988940000000     0.403119   
C20      C      0.451310000000     0.249660000000     0.496120000000     0.403425   
C21      C      0.260760000000     0.186680000000     0.013770000000     0.39966    
C22      C      0.269930000000     0.309080000000     0.017320000000     0.399128   
C23      C      0.202230000000     0.252560000000     0.010340000000     0.396294   
C24      C      0.327960000000     0.241800000000     0.019440000000     0.398343   
C25      C      0.380680000000     0.255700000000     0.040810000000    -0.0130433  
C26      C      0.375150000000     0.215160000000     0.498880000000    -0.0215344  
C27      C      0.404050000000     0.273760000000     0.019620000000    -0.0137332  
C28      C      0.396710000000     0.233990000000     0.477340000000     0.0321448  
C29      C      0.148930000000     0.237970000000     0.029880000000    -0.0125666  
C30      C      0.154690000000     0.272220000000     0.482380000000    -0.0238829  
C31      C      0.125670000000     0.217210000000     0.011700000000    -0.0131268  
C32      C      0.130520000000     0.251960000000     0.464900000000     0.0323444  
C33      C      0.256470000000     0.356980000000     0.045060000000    -0.0119301  
C34      C      0.286570000000     0.358330000000     0.993190000000    -0.0190811  
C35      C      0.244440000000     0.388720000000     0.534720000000    -0.00932913 
C36      C      0.296770000000     0.390910000000     0.504240000000     0.0322035  
C37      C      0.279050000000     0.138010000000     0.990420000000    -0.00803013 
C38      C      0.246790000000     0.138390000000     0.040500000000    -0.0226601  
C39      C      0.263520000000     0.107340000000     0.481350000000    -0.0103076  
C40      C      0.228980000000     0.109370000000     0.529490000000     0.0316311  
C41      C      0.266840000000     0.019160000000     0.369760000000    -0.0108353  
C42      C      0.237780000000     0.967360000000     0.372240000000    -0.0226764  
C43      C      0.279170000000     0.509470000000     0.401910000000    -0.00954178 
C44      C      0.227340000000     0.478580000000     0.405010000000     0.0317447  
C45      C      0.292500000000     0.992010000000     0.125940000000    -0.0187986  
C46      C      0.242300000000     0.023710000000     0.125350000000    -0.0237927  
C47      C      0.276690000000     0.468920000000     0.148670000000    -0.012025   
C48      C      0.226350000000     0.500250000000     0.146950000000     0.0326977  
C49      C      0.023500000000     0.267860000000     0.379910000000    -0.0107139  
C50      C      0.995520000000     0.216160000000     0.381320000000    -0.0165999  
C51      C      0.501960000000     0.277990000000     0.353070000000    -0.00903779 
C52      C      0.473670000000     0.226860000000     0.354160000000     0.0297076  
C53      C      0.503790000000     0.271340000000     0.104340000000    -0.012746   
C54      C      0.527500000000     0.217510000000     0.105120000000    -0.0234042  
C55      C      0.022430000000     0.279310000000     0.133940000000    -0.0081528  
C56      C      0.047540000000     0.226510000000     0.134030000000     0.0305196  
C57      C      0.139470000000     0.464930000000     0.240760000000    -0.0131677  
C58      C      0.139630000000     0.514380000000     0.271880000000    -0.0236008  
C59      C      0.120640000000     0.481390000000     0.214490000000    -0.0130046  
C60      C      0.123050000000     0.030820000000     0.244780000000     0.0335952  
C61      C      0.393150000000     0.996740000000     0.225060000000    -0.0186067  
C62      C      0.401130000000     0.467870000000     0.275760000000    -0.0236544  
C63      C      0.364200000000     0.012800000000     0.238890000000    -0.00492072 
C64      C      0.369200000000     0.481110000000     0.287830000000     0.0290965  
C65      C      0.504390000000     0.387130000000     0.209110000000    -0.0128076  
C66      C      0.042700000000     0.389410000000     0.254170000000    -0.0238812  
C67      C      0.487380000000     0.359600000000     0.224680000000    -0.0119088  
C68      C      0.025800000000     0.361910000000     0.269650000000     0.0308063  
C69      C      0.494900000000     0.139060000000     0.215950000000    -0.0122568  
C70      C      0.032200000000     0.138400000000     0.262060000000    -0.0217203  
C71      C      0.480340000000     0.108390000000     0.227170000000    -0.0127097  
C72      C      0.014660000000     0.109910000000     0.275190000000     0.0244332  
C73      C      0.003740000000     0.059620000000     0.745780000000     0.39796    
C74      C      0.516160000000     0.437060000000     0.735420000000     0.397422   
C75      C      0.071370000000     0.005020000000     0.732120000000     0.405032   
C76      C      0.446770000000     0.491100000000     0.747420000000     0.399686   
C77      C      0.010420000000     0.187620000000     0.742370000000     0.393512   
C78      C      0.009860000000     0.311020000000     0.744660000000     0.395163   
C79      C      0.023710000000     0.250020000000     0.682670000000     0.39922    
C80      C      0.997060000000     0.248900000000     0.804360000000     0.406129   
C81      C      0.316280000000     0.990770000000     0.761510000000     0.397803   
C82      C      0.190060000000     0.988000000000     0.759330000000     0.397626   
C83      C      0.252960000000     0.986380000000     0.697980000000     0.40053    
C84      C      0.252240000000     0.991370000000     0.821890000000     0.398613   
C85      C      0.253870000000     0.060050000000     0.510530000000     0.406442   
C86      C      0.267080000000     0.438280000000     0.018170000000     0.402841   
C87      C      0.265460000000     0.004370000000     0.576120000000     0.402265   
C88      C      0.256030000000     0.495520000000     0.952550000000     0.403084   
C89      C      0.017780000000     0.244880000000     0.555220000000     0.397346   
C90      C      0.510200000000     0.243380000000     0.930480000000     0.398033   
C91      C      0.077190000000     0.238790000000     0.488940000000     0.402826   
C92      C      0.451310000000     0.249660000000     0.996120000000     0.403736   
C93      C      0.260760000000     0.186680000000     0.513770000000     0.402118   
C94      C      0.269930000000     0.309080000000     0.517320000000     0.401632   
C95      C      0.202230000000     0.252560000000     0.510340000000     0.398822   
C96      C      0.327960000000     0.241800000000     0.519430000000     0.400816   
C97      C      0.380680000000     0.255700000000     0.540810000000    -0.0132771  
C98      C      0.375150000000     0.215160000000     0.998870000000    -0.0174086  
C99      C      0.404050000000     0.273760000000     0.519620000000    -0.0120531  
C100     C      0.396710000000     0.233990000000     0.977340000000     0.0312523  
C101     C      0.148930000000     0.237970000000     0.529880000000    -0.0127625  
C102     C      0.154690000000     0.272220000000     0.982380000000    -0.0223973  
C103     C      0.125670000000     0.217210000000     0.511700000000    -0.0114305  
C104     C      0.130520000000     0.251960000000     0.964900000000     0.0321065  
C105     C      0.256470000000     0.356980000000     0.545060000000    -0.0119704  
C106     C      0.286570000000     0.358330000000     0.493190000000    -0.0231583  
C107     C      0.244440000000     0.388720000000     0.034720000000    -0.0095701  
C108     C      0.296770000000     0.390910000000     0.004240000000     0.0279448  
C109     C      0.279050000000     0.138010000000     0.490420000000    -0.0118795  
C110     C      0.246790000000     0.138390000000     0.540500000000    -0.0225207  
C111     C      0.263520000000     0.107340000000     0.981350000000    -0.00964256 
C112     C      0.228980000000     0.109370000000     0.029480000000     0.0316094  
C113     C      0.266840000000     0.019160000000     0.869760000000    -0.0108137  
C114     C      0.237780000000     0.967360000000     0.872240000000    -0.022639   
C115     C      0.279170000000     0.509470000000     0.901910000000    -0.00959426 
C116     C      0.227340000000     0.478580000000     0.905000000000     0.0315772  
C117     C      0.292500000000     0.992010000000     0.625940000000    -0.0188081  
C118     C      0.242300000000     0.023710000000     0.625350000000    -0.0237865  
C119     C      0.276690000000     0.468920000000     0.648670000000    -0.0120081  
C120     C      0.226350000000     0.500250000000     0.646950000000     0.0326768  
C121     C      0.023500000000     0.267860000000     0.879910000000    -0.0107122  
C122     C      0.995520000000     0.216160000000     0.881320000000    -0.0166039  
C123     C      0.501960000000     0.277990000000     0.853070000000    -0.00904362 
C124     C      0.473670000000     0.226860000000     0.854160000000     0.0297049  
C125     C      0.503790000000     0.271340000000     0.604340000000    -0.01276    
C126     C      0.527500000000     0.217510000000     0.605120000000    -0.0234429  
C127     C      0.022430000000     0.279310000000     0.633940000000    -0.00814436 
C128     C      0.047540000000     0.226510000000     0.634030000000     0.0305139  
C129     C      0.139470000000     0.464930000000     0.740760000000    -0.0131777  
C130     C      0.139630000000     0.514380000000     0.771880000000    -0.0236037  
C131     C      0.120640000000     0.481390000000     0.714490000000    -0.0130111  
C132     C      0.123050000000     0.030820000000     0.744780000000     0.0335853  
C133     C      0.393150000000     0.996740000000     0.725060000000    -0.0186108  
C134     C      0.401130000000     0.467870000000     0.775760000000    -0.0236541  
C135     C      0.364200000000     0.012800000000     0.738890000000    -0.00491461 
C136     C      0.369200000000     0.481110000000     0.787830000000     0.029052   
C137     C      0.504390000000     0.387130000000     0.709110000000    -0.0128498  
C138     C      0.042700000000     0.389410000000     0.754170000000    -0.0238795  
C139     C      0.487380000000     0.359600000000     0.724680000000    -0.0118891  
C140     C      0.025800000000     0.361910000000     0.769650000000     0.0307786  
C141     C      0.494900000000     0.139060000000     0.715950000000    -0.0122597  
C142     C      0.032200000000     0.138400000000     0.762060000000    -0.0217085  
C143     C      0.480340000000     0.108390000000     0.727170000000    -0.0127151  
C144     C      0.014660000000     0.109910000000     0.775190000000     0.0243814  
C145     C      0.003740000000     0.559620000000     0.245780000000     0.39812    
C146     C      0.516160000000     0.937050000000     0.235420000000     0.39752    
C147     C      0.071370000000     0.505020000000     0.232120000000     0.404929   
C148     C      0.446770000000     0.991100000000     0.247410000000     0.399389   
C149     C      0.010420000000     0.687620000000     0.242370000000     0.393436   
C150     C      0.009860000000     0.811020000000     0.244650000000     0.39525    
C151     C      0.023710000000     0.750020000000     0.182670000000     0.399232   
C152     C      0.997060000000     0.748910000000     0.304360000000     0.406184   
C153     C      0.316280000000     0.490770000000     0.261500000000     0.401348   
C154     C      0.190060000000     0.488000000000     0.259340000000     0.401078   
C155     C      0.252960000000     0.486380000000     0.197980000000     0.403961   
C156     C      0.252240000000     0.491370000000     0.321890000000     0.402146   
C157     C      0.253870000000     0.560050000000     0.010530000000     0.406328   
C158     C      0.267080000000     0.938280000000     0.518170000000     0.403321   
C159     C      0.265460000000     0.504370000000     0.076120000000     0.402251   
C160     C      0.256030000000     0.995520000000     0.452540000000     0.399624   
C161     C      0.017780000000     0.744880000000     0.055220000000     0.397634   
C162     C      0.510200000000     0.743380000000     0.430480000000     0.397945   
C163     C      0.077190000000     0.738790000000     0.988940000000     0.40337    
C164     C      0.451310000000     0.749660000000     0.496120000000     0.403446   
C165     C      0.260760000000     0.686680000000     0.013770000000     0.399659   
C166     C      0.269930000000     0.809080000000     0.017320000000     0.39913    
C167     C      0.202230000000     0.752550000000     0.010340000000     0.396303   
C168     C      0.327960000000     0.741800000000     0.019440000000     0.398398   
C169     C      0.380680000000     0.755700000000     0.040810000000    -0.0129925  
C170     C      0.375150000000     0.715150000000     0.498880000000    -0.0217085  
C171     C      0.404050000000     0.773760000000     0.019620000000    -0.0137298  
C172     C      0.396710000000     0.733990000000     0.477340000000     0.0322314  
C173     C      0.148930000000     0.737970000000     0.029880000000    -0.0125761  
C174     C      0.154690000000     0.772220000000     0.482380000000    -0.0238711  
C175     C      0.125670000000     0.717210000000     0.011700000000    -0.0131033  
C176     C      0.130520000000     0.751960000000     0.464900000000     0.0323693  
C177     C      0.256470000000     0.856980000000     0.045060000000    -0.0119364  
C178     C      0.286570000000     0.858330000000     0.993190000000    -0.0191291  
C179     C      0.244440000000     0.888720000000     0.534720000000    -0.00932171 
C180     C      0.296770000000     0.890910000000     0.504240000000     0.032366   
C181     C      0.279050000000     0.638010000000     0.990420000000    -0.00802371 
C182     C      0.246790000000     0.638390000000     0.040500000000    -0.0226787  
C183     C      0.263520000000     0.607340000000     0.481350000000    -0.0102907  
C184     C      0.228980000000     0.609380000000     0.529490000000     0.0317033  
C185     C      0.266840000000     0.519160000000     0.369760000000    -0.0116007  
C186     C      0.237780000000     0.467360000000     0.372240000000    -0.022997   
C187     C      0.279170000000     0.009470000000     0.401910000000    -0.00448701 
C188     C      0.227340000000     0.978580000000     0.405010000000     0.0284807  
C189     C      0.292500000000     0.492010000000     0.125940000000    -0.012974   
C190     C      0.242300000000     0.523710000000     0.125350000000    -0.0226112  
C191     C      0.276690000000     0.968920000000     0.148670000000    -0.0107993  
C192     C      0.226350000000     0.000250000000     0.146950000000     0.0375027  
C193     C      0.023500000000     0.767860000000     0.379910000000    -0.0107095  
C194     C      0.995520000000     0.716150000000     0.381320000000    -0.0166832  
C195     C      0.501960000000     0.777990000000     0.353070000000    -0.00903693 
C196     C      0.473670000000     0.726850000000     0.354160000000     0.0297491  
C197     C      0.503790000000     0.771340000000     0.104340000000    -0.0127457  
C198     C      0.527500000000     0.717510000000     0.105120000000    -0.0233927  
C199     C      0.022430000000     0.779310000000     0.133940000000    -0.00811787 
C200     C      0.047540000000     0.726510000000     0.134030000000     0.0305346  
C201     C      0.139470000000     0.964930000000     0.240760000000    -0.0130157  
C202     C      0.139630000000     0.014380000000     0.271880000000    -0.0215438  
C203     C      0.120640000000     0.981390000000     0.214490000000    -0.0152308  
C204     C      0.123050000000     0.530820000000     0.244780000000     0.033952   
C205     C      0.393150000000     0.496740000000     0.225060000000    -0.0118539  
C206     C      0.401130000000     0.967870000000     0.275760000000    -0.0233014  
C207     C      0.364200000000     0.512800000000     0.238890000000    -0.0107096  
C208     C      0.369200000000     0.981110000000     0.287830000000     0.0261693  
C209     C      0.504390000000     0.887130000000     0.209110000000    -0.0127401  
C210     C      0.042700000000     0.889410000000     0.254170000000    -0.0238733  
C211     C      0.487380000000     0.859600000000     0.224680000000    -0.0119255  
C212     C      0.025800000000     0.861910000000     0.269650000000     0.0308427  
C213     C      0.494900000000     0.639060000000     0.215950000000    -0.0122531  
C214     C      0.032200000000     0.638400000000     0.262060000000    -0.0217568  
C215     C      0.480340000000     0.608390000000     0.227170000000    -0.0127091  
C216     C      0.014660000000     0.609910000000     0.275190000000     0.0245831  
C217     C      0.003740000000     0.559620000000     0.745780000000     0.398105   
C218     C      0.516160000000     0.937050000000     0.735420000000     0.397511   
C219     C      0.071370000000     0.505020000000     0.732120000000     0.404917   
C220     C      0.446770000000     0.991100000000     0.747420000000     0.399363   
C221     C      0.010420000000     0.687620000000     0.742370000000     0.393505   
C222     C      0.009860000000     0.811020000000     0.744660000000     0.395229   
C223     C      0.023710000000     0.750020000000     0.682670000000     0.399217   
C224     C      0.997060000000     0.748910000000     0.804360000000     0.406184   
C225     C      0.316280000000     0.490770000000     0.761510000000     0.40133    
C226     C      0.190060000000     0.488000000000     0.759330000000     0.401112   
C227     C      0.252960000000     0.486380000000     0.697980000000     0.403957   
C228     C      0.252240000000     0.491370000000     0.821890000000     0.402147   
C229     C      0.253870000000     0.560050000000     0.510530000000     0.406652   
C230     C      0.267080000000     0.938280000000     0.018170000000     0.402856   
C231     C      0.265460000000     0.504370000000     0.576120000000     0.402351   
C232     C      0.256030000000     0.995520000000     0.952550000000     0.399458   
C233     C      0.017780000000     0.744880000000     0.555220000000     0.397364   
C234     C      0.510200000000     0.743380000000     0.930480000000     0.398048   
C235     C      0.077190000000     0.738790000000     0.488940000000     0.403077   
C236     C      0.451310000000     0.749660000000     0.996120000000     0.403757   
C237     C      0.260760000000     0.686680000000     0.513770000000     0.402117   
C238     C      0.269930000000     0.809080000000     0.517320000000     0.401633   
C239     C      0.202230000000     0.752550000000     0.510340000000     0.39883    
C240     C      0.327960000000     0.741800000000     0.519430000000     0.40087    
C241     C      0.380680000000     0.755700000000     0.540810000000    -0.0132265  
C242     C      0.375150000000     0.715150000000     0.998870000000    -0.0175784  
C243     C      0.404050000000     0.773760000000     0.519620000000    -0.0120498  
C244     C      0.396710000000     0.733990000000     0.977340000000     0.0313384  
C245     C      0.148930000000     0.737970000000     0.529880000000    -0.0127721  
C246     C      0.154690000000     0.772220000000     0.982380000000    -0.0223855  
C247     C      0.125670000000     0.717210000000     0.511700000000    -0.0114073  
C248     C      0.130520000000     0.751960000000     0.964900000000     0.0321314  
C249     C      0.256470000000     0.856980000000     0.545060000000    -0.0119765  
C250     C      0.286570000000     0.858330000000     0.493190000000    -0.0231997  
C251     C      0.244440000000     0.888720000000     0.034720000000    -0.00956229 
C252     C      0.296770000000     0.890910000000     0.004240000000     0.0281157  
C253     C      0.279050000000     0.638010000000     0.490420000000    -0.0118782  
C254     C      0.246790000000     0.638390000000     0.540500000000    -0.0225394  
C255     C      0.263520000000     0.607340000000     0.981350000000    -0.00962356 
C256     C      0.228980000000     0.609380000000     0.029480000000     0.031681   
C257     C      0.266840000000     0.519160000000     0.869760000000    -0.0115788  
C258     C      0.237780000000     0.467360000000     0.872240000000    -0.0229598  
C259     C      0.279170000000     0.009470000000     0.901910000000    -0.00454851 
C260     C      0.227340000000     0.978580000000     0.905000000000     0.0283192  
C261     C      0.292500000000     0.492010000000     0.625940000000    -0.0129752  
C262     C      0.242300000000     0.523710000000     0.625350000000    -0.0226034  
C263     C      0.276690000000     0.968920000000     0.648670000000    -0.0107809  
C264     C      0.226350000000     0.000250000000     0.646950000000     0.0374879  
C265     C      0.023500000000     0.767860000000     0.879910000000    -0.0107079  
C266     C      0.995520000000     0.716150000000     0.881320000000    -0.0166873  
C267     C      0.501960000000     0.777990000000     0.853070000000    -0.00904276 
C268     C      0.473670000000     0.726850000000     0.854160000000     0.0297462  
C269     C      0.503790000000     0.771340000000     0.604340000000    -0.0127597  
C270     C      0.527500000000     0.717510000000     0.605120000000    -0.0234313  
C271     C      0.022430000000     0.779310000000     0.633940000000    -0.00810941 
C272     C      0.047540000000     0.726510000000     0.634030000000     0.030529   
C273     C      0.139470000000     0.964930000000     0.740760000000    -0.0130256  
C274     C      0.139630000000     0.014380000000     0.771880000000    -0.0215468  
C275     C      0.120640000000     0.981390000000     0.714490000000    -0.0152381  
C276     C      0.123050000000     0.530820000000     0.744780000000     0.033942   
C277     C      0.393150000000     0.496740000000     0.725060000000    -0.0118546  
C278     C      0.401130000000     0.967870000000     0.775760000000    -0.0233017  
C279     C      0.364200000000     0.512800000000     0.738890000000    -0.0107048  
C280     C      0.369200000000     0.981110000000     0.787830000000     0.0261264  
C281     C      0.504390000000     0.887130000000     0.709110000000    -0.0127823  
C282     C      0.042700000000     0.889410000000     0.754170000000    -0.0238717  
C283     C      0.487380000000     0.859600000000     0.724680000000    -0.0119058  
C284     C      0.025800000000     0.861910000000     0.769650000000     0.030815   
C285     C      0.494900000000     0.639060000000     0.715950000000    -0.0122559  
C286     C      0.032200000000     0.638400000000     0.762060000000    -0.021745   
C287     C      0.480340000000     0.608390000000     0.727170000000    -0.0127145  
C288     C      0.014660000000     0.609910000000     0.775190000000     0.024531   
C289     C      0.503740000000     0.059620000000     0.245780000000     0.398618   
C290     C      0.016160000000     0.437060000000     0.235420000000     0.396646   
C291     C      0.571370000000     0.005020000000     0.232120000000     0.405229   
C292     C      0.946770000000     0.491100000000     0.247410000000     0.399283   
C293     C      0.510420000000     0.187620000000     0.242370000000     0.397663   
C294     C      0.509860000000     0.311020000000     0.244650000000     0.399358   
C295     C      0.523710000000     0.250020000000     0.182670000000     0.403374   
C296     C      0.497060000000     0.248900000000     0.304360000000     0.401833   
C297     C      0.816280000000     0.990770000000     0.261500000000     0.397826   
C298     C      0.690060000000     0.988000000000     0.259340000000     0.397592   
C299     C      0.752960000000     0.986380000000     0.197980000000     0.400536   
C300     C      0.752240000000     0.991370000000     0.321890000000     0.398614   
C301     C      0.753870000000     0.060050000000     0.010530000000     0.406099   
C302     C      0.767080000000     0.438280000000     0.518170000000     0.403287   
C303     C      0.765460000000     0.004370000000     0.076120000000     0.402152   
C304     C      0.756030000000     0.495520000000     0.452540000000     0.403241   
C305     C      0.517780000000     0.244880000000     0.055220000000     0.39821    
C306     C      0.010200000000     0.243380000000     0.430480000000     0.397584   
C307     C      0.577190000000     0.238790000000     0.988940000000     0.403291   
C308     C      0.951310000000     0.249660000000     0.496120000000     0.402984   
C309     C      0.760760000000     0.186680000000     0.013770000000     0.39965    
C310     C      0.769930000000     0.309080000000     0.017320000000     0.39912    
C311     C      0.702230000000     0.252560000000     0.010340000000     0.39639    
C312     C      0.827960000000     0.241800000000     0.019440000000     0.398459   
C313     C      0.880680000000     0.255700000000     0.040810000000    -0.0130433  
C314     C      0.875150000000     0.215160000000     0.498880000000    -0.0215037  
C315     C      0.904050000000     0.273760000000     0.019620000000    -0.0137557  
C316     C      0.896710000000     0.233990000000     0.477340000000     0.0319451  
C317     C      0.648930000000     0.237970000000     0.029880000000    -0.0125835  
C318     C      0.654690000000     0.272220000000     0.482380000000    -0.0239004  
C319     C      0.625670000000     0.217210000000     0.011700000000    -0.013138   
C320     C      0.630510000000     0.251960000000     0.464900000000     0.0323677  
C321     C      0.756470000000     0.356980000000     0.045060000000    -0.0119352  
C322     C      0.786570000000     0.358330000000     0.993190000000    -0.0190331  
C323     C      0.744440000000     0.388720000000     0.534720000000    -0.00934391 
C324     C      0.796770000000     0.390910000000     0.504240000000     0.0320691  
C325     C      0.779050000000     0.138010000000     0.990420000000    -0.00803402 
C326     C      0.746790000000     0.138390000000     0.040500000000    -0.022666   
C327     C      0.763520000000     0.107340000000     0.481350000000    -0.0103032  
C328     C      0.728980000000     0.109370000000     0.529490000000     0.0316072  
C329     C      0.766840000000     0.019160000000     0.369760000000    -0.0108305  
C330     C      0.737780000000     0.967360000000     0.372240000000    -0.0226727  
C331     C      0.779170000000     0.509470000000     0.401910000000    -0.00957011 
C332     C      0.727340000000     0.478580000000     0.405010000000     0.0316919  
C333     C      0.792500000000     0.992010000000     0.125940000000    -0.0188101  
C334     C      0.742300000000     0.023710000000     0.125350000000    -0.0237608  
C335     C      0.776690000000     0.468920000000     0.148670000000    -0.0120222  
C336     C      0.726350000000     0.500250000000     0.146950000000     0.0326662  
C337     C      0.523500000000     0.267860000000     0.379910000000    -0.0124746  
C338     C      0.495520000000     0.216160000000     0.381320000000    -0.0238108  
C339     C      0.001960000000     0.277990000000     0.353070000000    -0.0162     
C340     C      0.973670000000     0.226860000000     0.354160000000     0.0281112  
C341     C      0.003790000000     0.271340000000     0.104340000000    -0.0171022  
C342     C      0.027500000000     0.217510000000     0.105120000000    -0.0235363  
C343     C      0.522430000000     0.279310000000     0.133940000000    -0.00903887 
C344     C      0.547540000000     0.226510000000     0.134030000000     0.0306001  
C345     C      0.639470000000     0.464930000000     0.240760000000    -0.0131782  
C346     C      0.639640000000     0.514380000000     0.271880000000    -0.0235847  
C347     C      0.620640000000     0.481390000000     0.214490000000    -0.01301    
C348     C      0.623050000000     0.030820000000     0.244780000000     0.0335845  
C349     C      0.893150000000     0.996740000000     0.225060000000    -0.0186195  
C350     C      0.901130000000     0.467870000000     0.275760000000    -0.0236708  
C351     C      0.864200000000     0.012800000000     0.238890000000    -0.00492317 
C352     C      0.869200000000     0.481110000000     0.287830000000     0.0290342  
C353     C      0.004390000000     0.387130000000     0.209110000000    -0.0211387  
C354     C      0.542700000000     0.389410000000     0.254170000000    -0.0233803  
C355     C      0.987380000000     0.359600000000     0.224680000000    -0.00470915 
C356     C      0.525800000000     0.361910000000     0.269650000000     0.0305699  
C357     C      0.994900000000     0.139060000000     0.215950000000    -0.00586962 
C358     C      0.532200000000     0.138400000000     0.262060000000    -0.0224687  
C359     C      0.980340000000     0.108390000000     0.227170000000    -0.0117054  
C360     C      0.514660000000     0.109910000000     0.275190000000     0.0283941  
C361     C      0.503740000000     0.059620000000     0.745780000000     0.398605   
C362     C      0.016160000000     0.437060000000     0.735420000000     0.396634   
C363     C      0.571370000000     0.005020000000     0.732120000000     0.405217   
C364     C      0.946770000000     0.491100000000     0.747420000000     0.399257   
C365     C      0.510420000000     0.187620000000     0.742370000000     0.397745   
C366     C      0.509860000000     0.311020000000     0.744660000000     0.399348   
C367     C      0.523710000000     0.250020000000     0.682670000000     0.403373   
C368     C      0.497060000000     0.248900000000     0.804360000000     0.401825   
C369     C      0.816280000000     0.990770000000     0.761510000000     0.397808   
C370     C      0.690060000000     0.988000000000     0.759330000000     0.397625   
C371     C      0.752960000000     0.986380000000     0.697980000000     0.400529   
C372     C      0.752240000000     0.991370000000     0.821890000000     0.398617   
C373     C      0.753870000000     0.060050000000     0.510530000000     0.406423   
C374     C      0.767080000000     0.438280000000     0.018170000000     0.402819   
C375     C      0.765460000000     0.004370000000     0.576120000000     0.402251   
C376     C      0.756030000000     0.495520000000     0.952550000000     0.403065   
C377     C      0.517780000000     0.244880000000     0.555220000000     0.39794    
C378     C      0.010200000000     0.243380000000     0.930480000000     0.397686   
C379     C      0.577190000000     0.238790000000     0.488940000000     0.402997   
C380     C      0.951310000000     0.249660000000     0.996120000000     0.403294   
C381     C      0.760760000000     0.186680000000     0.513770000000     0.402119   
C382     C      0.769930000000     0.309080000000     0.517320000000     0.401635   
C383     C      0.702230000000     0.252560000000     0.510340000000     0.398931   
C384     C      0.827960000000     0.241800000000     0.519430000000     0.400942   
C385     C      0.880680000000     0.255700000000     0.540810000000    -0.0132772  
C386     C      0.875150000000     0.215160000000     0.998870000000    -0.017365   
C387     C      0.904050000000     0.273760000000     0.519620000000    -0.0120697  
C388     C      0.896710000000     0.233990000000     0.977340000000     0.0310497  
C389     C      0.648930000000     0.237970000000     0.529880000000    -0.0127799  
C390     C      0.654690000000     0.272220000000     0.982380000000    -0.0224074  
C391     C      0.625670000000     0.217210000000     0.511700000000    -0.0114312  
C392     C      0.630510000000     0.251960000000     0.964900000000     0.0321287  
C393     C      0.756470000000     0.356980000000     0.545060000000    -0.0119755  
C394     C      0.786570000000     0.358330000000     0.493190000000    -0.023126   
C395     C      0.744440000000     0.388720000000     0.034720000000    -0.00958568 
C396     C      0.796770000000     0.390910000000     0.004240000000     0.0277929  
C397     C      0.779050000000     0.138010000000     0.490420000000    -0.0118987  
C398     C      0.746790000000     0.138390000000     0.540500000000    -0.0225258  
C399     C      0.763520000000     0.107340000000     0.981350000000    -0.00963539 
C400     C      0.728980000000     0.109370000000     0.029480000000     0.0315856  
C401     C      0.766840000000     0.019160000000     0.869760000000    -0.0108088  
C402     C      0.737780000000     0.967360000000     0.872240000000    -0.022635   
C403     C      0.779170000000     0.509470000000     0.901910000000    -0.00962268 
C404     C      0.727340000000     0.478580000000     0.905000000000     0.0315239  
C405     C      0.792500000000     0.992010000000     0.625940000000    -0.0188197  
C406     C      0.742300000000     0.023710000000     0.625350000000    -0.0237546  
C407     C      0.776690000000     0.468920000000     0.648670000000    -0.0120053  
C408     C      0.726350000000     0.500250000000     0.646950000000     0.0326451  
C409     C      0.523500000000     0.267860000000     0.879910000000    -0.0124755  
C410     C      0.495520000000     0.216160000000     0.881320000000    -0.0238226  
C411     C      0.001960000000     0.277990000000     0.853070000000    -0.0162166  
C412     C      0.973670000000     0.226860000000     0.854160000000     0.028107   
C413     C      0.003790000000     0.271340000000     0.604340000000    -0.0171367  
C414     C      0.027500000000     0.217510000000     0.605120000000    -0.0235754  
C415     C      0.522430000000     0.279310000000     0.633940000000    -0.00903492 
C416     C      0.547540000000     0.226510000000     0.634030000000     0.0305945  
C417     C      0.639470000000     0.464930000000     0.740760000000    -0.0131882  
C418     C      0.639640000000     0.514380000000     0.771880000000    -0.0235876  
C419     C      0.620640000000     0.481390000000     0.714490000000    -0.0130166  
C420     C      0.623050000000     0.030820000000     0.744780000000     0.0335745  
C421     C      0.893150000000     0.996740000000     0.725060000000    -0.0186238  
C422     C      0.901130000000     0.467870000000     0.775760000000    -0.0236705  
C423     C      0.864200000000     0.012800000000     0.738890000000    -0.00491697 
C424     C      0.869200000000     0.481110000000     0.787830000000     0.0289895  
C425     C      0.004390000000     0.387130000000     0.709110000000    -0.0212101  
C426     C      0.542700000000     0.389410000000     0.754170000000    -0.0233772  
C427     C      0.987380000000     0.359600000000     0.724680000000    -0.0046678  
C428     C      0.525800000000     0.361910000000     0.769650000000     0.0305414  
C429     C      0.994900000000     0.139060000000     0.715950000000    -0.00585344 
C430     C      0.532200000000     0.138400000000     0.762060000000    -0.0224584  
C431     C      0.980340000000     0.108390000000     0.727170000000    -0.0117089  
C432     C      0.514660000000     0.109910000000     0.775190000000     0.0283509  
C433     C      0.503740000000     0.559620000000     0.245780000000     0.398765   
C434     C      0.016160000000     0.937050000000     0.235420000000     0.396736   
C435     C      0.571370000000     0.505020000000     0.232120000000     0.405116   
C436     C      0.946770000000     0.991100000000     0.247410000000     0.398963   
C437     C      0.510420000000     0.687620000000     0.242370000000     0.397664   
C438     C      0.509860000000     0.811020000000     0.244650000000     0.399428   
C439     C      0.523710000000     0.750020000000     0.182670000000     0.403376   
C440     C      0.497060000000     0.748910000000     0.304360000000     0.401881   
C441     C      0.816280000000     0.490770000000     0.261500000000     0.401345   
C442     C      0.690060000000     0.488000000000     0.259340000000     0.401074   
C443     C      0.752960000000     0.486380000000     0.197980000000     0.403955   
C444     C      0.752240000000     0.491370000000     0.321890000000     0.402144   
C445     C      0.753870000000     0.560050000000     0.010530000000     0.406308   
C446     C      0.767080000000     0.938280000000     0.518170000000     0.4033     
C447     C      0.765460000000     0.504370000000     0.076120000000     0.402237   
C448     C      0.756030000000     0.995520000000     0.452540000000     0.399614   
C449     C      0.517780000000     0.744880000000     0.055220000000     0.398228   
C450     C      0.010200000000     0.743380000000     0.430480000000     0.397599   
C451     C      0.577190000000     0.738790000000     0.988940000000     0.403543   
C452     C      0.951310000000     0.749660000000     0.496120000000     0.403004   
C453     C      0.760760000000     0.686680000000     0.013770000000     0.399649   
C454     C      0.769930000000     0.809080000000     0.017320000000     0.399122   
C455     C      0.702230000000     0.752550000000     0.010340000000     0.3964     
C456     C      0.827960000000     0.741800000000     0.019440000000     0.398514   
C457     C      0.880680000000     0.755700000000     0.040810000000    -0.0129925  
C458     C      0.875150000000     0.715150000000     0.498880000000    -0.0216778  
C459     C      0.904050000000     0.773760000000     0.019620000000    -0.0137522  
C460     C      0.896710000000     0.733990000000     0.477340000000     0.0320313  
C461     C      0.648930000000     0.737970000000     0.029880000000    -0.012593   
C462     C      0.654690000000     0.772220000000     0.482380000000    -0.0238886  
C463     C      0.625670000000     0.717210000000     0.011700000000    -0.0131145  
C464     C      0.630510000000     0.751960000000     0.464900000000     0.0323926  
C465     C      0.756470000000     0.856980000000     0.045060000000    -0.0119415  
C466     C      0.786570000000     0.858330000000     0.993190000000    -0.019081   
C467     C      0.744440000000     0.888720000000     0.534720000000    -0.00933644 
C468     C      0.796770000000     0.890910000000     0.504240000000     0.0322312  
C469     C      0.779050000000     0.638010000000     0.990420000000    -0.00802768 
C470     C      0.746790000000     0.638390000000     0.040500000000    -0.0226845  
C471     C      0.763520000000     0.607340000000     0.481350000000    -0.0102863  
C472     C      0.728980000000     0.609380000000     0.529490000000     0.0316792  
C473     C      0.766840000000     0.519160000000     0.369760000000    -0.0115948  
C474     C      0.737780000000     0.467360000000     0.372240000000    -0.0229928  
C475     C      0.779170000000     0.009470000000     0.401910000000    -0.00452678 
C476     C      0.727340000000     0.978580000000     0.405010000000     0.0284325  
C477     C      0.792500000000     0.492010000000     0.125940000000    -0.012998   
C478     C      0.742300000000     0.523710000000     0.125350000000    -0.0225817  
C479     C      0.776690000000     0.968920000000     0.148670000000    -0.0107993  
C480     C      0.726350000000     0.000250000000     0.146950000000     0.0374624  
C481     C      0.523500000000     0.767860000000     0.379910000000    -0.0124723  
C482     C      0.495520000000     0.716150000000     0.381320000000    -0.0239101  
C483     C      0.001960000000     0.777990000000     0.353070000000    -0.0162064  
C484     C      0.973670000000     0.726850000000     0.354160000000     0.0281486  
C485     C      0.003790000000     0.771340000000     0.104340000000    -0.0171067  
C486     C      0.027500000000     0.717510000000     0.105120000000    -0.023525   
C487     C      0.522430000000     0.779310000000     0.133940000000    -0.00900471 
C488     C      0.547540000000     0.726510000000     0.134030000000     0.0306151  
C489     C      0.639470000000     0.964930000000     0.240760000000    -0.013026   
C490     C      0.639640000000     0.014380000000     0.271880000000    -0.0215287  
C491     C      0.620640000000     0.981390000000     0.214490000000    -0.015236   
C492     C      0.623050000000     0.530820000000     0.244780000000     0.033941   
C493     C      0.893150000000     0.496740000000     0.225060000000    -0.0118899  
C494     C      0.901130000000     0.967870000000     0.275760000000    -0.0233193  
C495     C      0.864200000000     0.512800000000     0.238890000000    -0.0106918  
C496     C      0.869200000000     0.981110000000     0.287830000000     0.0261171  
C497     C      0.004390000000     0.887130000000     0.209110000000    -0.0210704  
C498     C      0.542700000000     0.889410000000     0.254170000000    -0.0233726  
C499     C      0.987380000000     0.859600000000     0.224680000000    -0.00472484 
C500     C      0.525800000000     0.861910000000     0.269650000000     0.0306066  
C501     C      0.994900000000     0.639060000000     0.215950000000    -0.00584754 
C502     C      0.532200000000     0.638400000000     0.262060000000    -0.0225077  
C503     C      0.980340000000     0.608390000000     0.227170000000    -0.0117002  
C504     C      0.514660000000     0.609910000000     0.275190000000     0.0285562  
C505     C      0.503740000000     0.559620000000     0.745780000000     0.398752   
C506     C      0.016160000000     0.937050000000     0.735420000000     0.396724   
C507     C      0.571370000000     0.505020000000     0.732120000000     0.405104   
C508     C      0.946770000000     0.991100000000     0.747420000000     0.398936   
C509     C      0.510420000000     0.687620000000     0.742370000000     0.397746   
C510     C      0.509860000000     0.811020000000     0.744660000000     0.399419   
C511     C      0.523710000000     0.750020000000     0.682670000000     0.403375   
C512     C      0.497060000000     0.748910000000     0.804360000000     0.401873   
C513     C      0.816280000000     0.490770000000     0.761510000000     0.401326   
C514     C      0.690060000000     0.488000000000     0.759330000000     0.401107   
C515     C      0.752960000000     0.486380000000     0.697980000000     0.40395    
C516     C      0.752240000000     0.491370000000     0.821890000000     0.402145   
C517     C      0.753870000000     0.560050000000     0.510530000000     0.406633   
C518     C      0.767080000000     0.938280000000     0.018170000000     0.402833   
C519     C      0.765460000000     0.504370000000     0.576120000000     0.402337   
C520     C      0.756030000000     0.995520000000     0.952550000000     0.399446   
C521     C      0.517780000000     0.744880000000     0.555220000000     0.397958   
C522     C      0.010200000000     0.743380000000     0.930480000000     0.397701   
C523     C      0.577190000000     0.738790000000     0.488940000000     0.403248   
C524     C      0.951310000000     0.749660000000     0.996120000000     0.403314   
C525     C      0.760760000000     0.686680000000     0.513770000000     0.402118   
C526     C      0.769930000000     0.809080000000     0.517320000000     0.401635   
C527     C      0.702230000000     0.752550000000     0.510340000000     0.39894    
C528     C      0.827960000000     0.741800000000     0.519430000000     0.400997   
C529     C      0.880680000000     0.755700000000     0.540810000000    -0.0132265  
C530     C      0.875150000000     0.715150000000     0.998870000000    -0.0175347  
C531     C      0.904050000000     0.773760000000     0.519620000000    -0.0120664  
C532     C      0.896710000000     0.733990000000     0.977340000000     0.0311353  
C533     C      0.648930000000     0.737970000000     0.529880000000    -0.0127894  
C534     C      0.654690000000     0.772220000000     0.982380000000    -0.0223956  
C535     C      0.625670000000     0.717210000000     0.511700000000    -0.011408   
C536     C      0.630510000000     0.751960000000     0.964900000000     0.0321537  
C537     C      0.756470000000     0.856980000000     0.545060000000    -0.0119817  
C538     C      0.786570000000     0.858330000000     0.493190000000    -0.0231673  
C539     C      0.744440000000     0.888720000000     0.034720000000    -0.00957782 
C540     C      0.796770000000     0.890910000000     0.004240000000     0.0279635  
C541     C      0.779050000000     0.638010000000     0.490420000000    -0.0118974  
C542     C      0.746790000000     0.638390000000     0.540500000000    -0.0225445  
C543     C      0.763520000000     0.607340000000     0.981350000000    -0.00961634 
C544     C      0.728980000000     0.609380000000     0.029480000000     0.031657   
C545     C      0.766840000000     0.519160000000     0.869760000000    -0.0115728  
C546     C      0.737780000000     0.467360000000     0.872240000000    -0.0229554  
C547     C      0.779170000000     0.009470000000     0.901910000000    -0.00458834 
C548     C      0.727340000000     0.978580000000     0.905000000000     0.0282705  
C549     C      0.792500000000     0.492010000000     0.625940000000    -0.0129993  
C550     C      0.742300000000     0.523710000000     0.625350000000    -0.0225739  
C551     C      0.776690000000     0.968920000000     0.648670000000    -0.0107809  
C552     C      0.726350000000     0.000250000000     0.646950000000     0.0374474  
C553     C      0.523500000000     0.767860000000     0.879910000000    -0.0124732  
C554     C      0.495520000000     0.716150000000     0.881320000000    -0.0239219  
C555     C      0.001960000000     0.777990000000     0.853070000000    -0.016223   
C556     C      0.973670000000     0.726850000000     0.854160000000     0.0281443  
C557     C      0.003790000000     0.771340000000     0.604340000000    -0.0171411  
C558     C      0.027500000000     0.717510000000     0.605120000000    -0.023564   
C559     C      0.522430000000     0.779310000000     0.633940000000    -0.00900074 
C560     C      0.547540000000     0.726510000000     0.634030000000     0.0306096  
C561     C      0.639470000000     0.964930000000     0.740760000000    -0.0130359  
C562     C      0.639640000000     0.014380000000     0.771880000000    -0.0215317  
C563     C      0.620640000000     0.981390000000     0.714490000000    -0.0152434  
C564     C      0.623050000000     0.530820000000     0.744780000000     0.033931   
C565     C      0.893150000000     0.496740000000     0.725060000000    -0.0118908  
C566     C      0.901130000000     0.967870000000     0.775760000000    -0.0233196  
C567     C      0.864200000000     0.512800000000     0.738890000000    -0.010687   
C568     C      0.869200000000     0.981110000000     0.787830000000     0.0260741  
C569     C      0.004390000000     0.887130000000     0.709110000000    -0.0211417  
C570     C      0.542700000000     0.889410000000     0.754170000000    -0.0233695  
C571     C      0.987380000000     0.859600000000     0.724680000000    -0.00468356 
C572     C      0.525800000000     0.861910000000     0.769650000000     0.0305781  
C573     C      0.994900000000     0.639060000000     0.715950000000    -0.00583132 
C574     C      0.532200000000     0.638400000000     0.762060000000    -0.0224973  
C575     C      0.980340000000     0.608390000000     0.727170000000    -0.0117037  
C576     C      0.514660000000     0.609910000000     0.775190000000     0.0285127  
Cu1      Cu     0.013290000000     0.496350000000     0.268740000000     0.839159   
Cu2      Cu     0.505150000000     0.000040000000     0.211690000000     0.847944   
Cu3      Cu     0.481610000000     0.249300000000     0.236930000000     0.835691   
Cu4      Cu     0.038820000000     0.249360000000     0.249890000000     0.841179   
Cu5      Cu     0.253790000000     0.460550000000     0.261060000000     0.83605    
Cu6      Cu     0.252570000000     0.017430000000     0.258820000000     0.856824   
Cu7      Cu     0.231520000000     0.496550000000     0.016960000000     0.852462   
Cu8      Cu     0.289850000000     0.001980000000     0.511750000000     0.853642   
Cu9      Cu     0.011760000000     0.215650000000     0.493400000000     0.840612   
Cu10     Cu     0.516740000000     0.272690000000     0.992400000000     0.843954   
Cu11     Cu     0.262720000000     0.247240000000     0.044030000000     0.844848   
Cu12     Cu     0.267700000000     0.248480000000     0.486390000000     0.845463   
Cu13     Cu     0.013290000000     0.496350000000     0.768740000000     0.839245   
Cu14     Cu     0.505150000000     0.000040000000     0.711690000000     0.848006   
Cu15     Cu     0.481610000000     0.249300000000     0.736930000000     0.835687   
Cu16     Cu     0.038820000000     0.249360000000     0.749890000000     0.841184   
Cu17     Cu     0.253790000000     0.460550000000     0.761060000000     0.836061   
Cu18     Cu     0.252570000000     0.017430000000     0.758820000000     0.856819   
Cu19     Cu     0.231520000000     0.496550000000     0.516960000000     0.854251   
Cu20     Cu     0.289850000000     0.001980000000     0.011750000000     0.851672   
Cu21     Cu     0.011760000000     0.215650000000     0.993400000000     0.842599   
Cu22     Cu     0.516740000000     0.272690000000     0.492400000000     0.84201    
Cu23     Cu     0.262720000000     0.247240000000     0.544030000000     0.847074   
Cu24     Cu     0.267700000000     0.248480000000     0.986390000000     0.846792   
Cu25     Cu     0.013290000000     0.996350000000     0.268740000000     0.831377   
Cu26     Cu     0.505150000000     0.500040000000     0.211690000000     0.840247   
Cu27     Cu     0.481610000000     0.749300000000     0.236930000000     0.835717   
Cu28     Cu     0.038820000000     0.749360000000     0.249890000000     0.841095   
Cu29     Cu     0.253790000000     0.960550000000     0.261060000000     0.8331     
Cu30     Cu     0.252570000000     0.517420000000     0.258820000000     0.85511    
Cu31     Cu     0.231520000000     0.996560000000     0.016960000000     0.844612   
Cu32     Cu     0.289850000000     0.501980000000     0.511750000000     0.848107   
Cu33     Cu     0.011760000000     0.715650000000     0.493400000000     0.840553   
Cu34     Cu     0.516740000000     0.772690000000     0.992400000000     0.843874   
Cu35     Cu     0.262720000000     0.747240000000     0.044030000000     0.844879   
Cu36     Cu     0.267700000000     0.748480000000     0.486390000000     0.84547    
Cu37     Cu     0.013290000000     0.996350000000     0.768740000000     0.831461   
Cu38     Cu     0.505150000000     0.500040000000     0.711690000000     0.840307   
Cu39     Cu     0.481610000000     0.749300000000     0.736930000000     0.835712   
Cu40     Cu     0.038820000000     0.749360000000     0.749890000000     0.841099   
Cu41     Cu     0.253790000000     0.960550000000     0.761060000000     0.83311    
Cu42     Cu     0.252570000000     0.517420000000     0.758820000000     0.855107   
Cu43     Cu     0.231520000000     0.996560000000     0.516960000000     0.84637    
Cu44     Cu     0.289850000000     0.501980000000     0.011750000000     0.846149   
Cu45     Cu     0.011760000000     0.715650000000     0.993400000000     0.842544   
Cu46     Cu     0.516740000000     0.772690000000     0.492400000000     0.84193    
Cu47     Cu     0.262720000000     0.747240000000     0.544030000000     0.847105   
Cu48     Cu     0.267700000000     0.748480000000     0.986390000000     0.8468     
Cu49     Cu     0.513300000000     0.496350000000     0.268740000000     0.842098   
Cu50     Cu     0.005150000000     0.000040000000     0.211690000000     0.84469    
Cu51     Cu     0.981610000000     0.249300000000     0.236930000000     0.838444   
Cu52     Cu     0.538820000000     0.249360000000     0.249890000000     0.844478   
Cu53     Cu     0.753790000000     0.460550000000     0.261060000000     0.836048   
Cu54     Cu     0.752570000000     0.017430000000     0.258820000000     0.856813   
Cu55     Cu     0.731520000000     0.496550000000     0.016960000000     0.852477   
Cu56     Cu     0.789850000000     0.001980000000     0.511750000000     0.853898   
Cu57     Cu     0.511760000000     0.215650000000     0.493400000000     0.843797   
Cu58     Cu     0.016740000000     0.272690000000     0.992400000000     0.840959   
Cu59     Cu     0.762720000000     0.247240000000     0.044030000000     0.844854   
Cu60     Cu     0.767700000000     0.248480000000     0.486390000000     0.84547    
Cu61     Cu     0.513300000000     0.496350000000     0.768740000000     0.842191   
Cu62     Cu     0.005150000000     0.000040000000     0.711690000000     0.844739   
Cu63     Cu     0.981610000000     0.249300000000     0.736930000000     0.838446   
Cu64     Cu     0.538820000000     0.249360000000     0.749890000000     0.844492   
Cu65     Cu     0.753790000000     0.460550000000     0.761060000000     0.836059   
Cu66     Cu     0.752570000000     0.017430000000     0.758820000000     0.856809   
Cu67     Cu     0.731520000000     0.496550000000     0.516960000000     0.854277   
Cu68     Cu     0.789850000000     0.001980000000     0.011750000000     0.851918   
Cu69     Cu     0.511760000000     0.215650000000     0.993400000000     0.845798   
Cu70     Cu     0.016740000000     0.272690000000     0.492400000000     0.839026   
Cu71     Cu     0.762720000000     0.247240000000     0.544030000000     0.84709    
Cu72     Cu     0.767700000000     0.248480000000     0.986390000000     0.846804   
Cu73     Cu     0.513300000000     0.996350000000     0.268740000000     0.834305   
Cu74     Cu     0.005150000000     0.500040000000     0.211690000000     0.836989   
Cu75     Cu     0.981610000000     0.749300000000     0.236930000000     0.838473   
Cu76     Cu     0.538820000000     0.749360000000     0.249890000000     0.844397   
Cu77     Cu     0.753790000000     0.960550000000     0.261060000000     0.833103   
Cu78     Cu     0.752570000000     0.517420000000     0.258820000000     0.855104   
Cu79     Cu     0.731520000000     0.996560000000     0.016960000000     0.844639   
Cu80     Cu     0.789850000000     0.501980000000     0.511750000000     0.848377   
Cu81     Cu     0.511760000000     0.715650000000     0.493400000000     0.843744   
Cu82     Cu     0.016740000000     0.772690000000     0.992400000000     0.840877   
Cu83     Cu     0.762720000000     0.747240000000     0.044030000000     0.844885   
Cu84     Cu     0.767700000000     0.748480000000     0.486390000000     0.845477   
Cu85     Cu     0.513300000000     0.996350000000     0.768740000000     0.834396   
Cu86     Cu     0.005150000000     0.500040000000     0.711690000000     0.837037   
Cu87     Cu     0.981610000000     0.749300000000     0.736930000000     0.838476   
Cu88     Cu     0.538820000000     0.749360000000     0.749890000000     0.844411   
Cu89     Cu     0.753790000000     0.960550000000     0.761060000000     0.833114   
Cu90     Cu     0.752570000000     0.517420000000     0.758820000000     0.8551     
Cu91     Cu     0.731520000000     0.996560000000     0.516960000000     0.846407   
Cu92     Cu     0.789850000000     0.501980000000     0.011750000000     0.846409   
Cu93     Cu     0.511760000000     0.715650000000     0.993400000000     0.845747   
Cu94     Cu     0.016740000000     0.772690000000     0.492400000000     0.838945   
Cu95     Cu     0.762720000000     0.747240000000     0.544030000000     0.847121   
Cu96     Cu     0.767700000000     0.748480000000     0.986390000000     0.846811   
H1       H      0.389970000000     0.198300000000     0.012200000000     0.0452329  
H2       H      0.394770000000     0.240510000000     0.056620000000     0.0415511  
H3       H      0.422040000000     0.285610000000     0.034550000000     0.0392328  
H4       H      0.357300000000     0.201770000000     0.485080000000     0.0449408  
H5       H      0.381040000000     0.250380000000     0.464420000000     0.0380088  
H6       H      0.366840000000     0.272290000000     0.055390000000     0.0402962  
H7       H      0.390390000000     0.291740000000     0.506690000000     0.0417925  
H8       H      0.141900000000     0.292080000000     0.993260000000     0.0476348  
H9       H      0.134950000000     0.255300000000     0.043370000000     0.0425477  
H10      H      0.108600000000     0.206490000000     0.028450000000     0.039338   
H11      H      0.172490000000     0.281900000000     0.465710000000     0.0475814  
H12      H      0.144560000000     0.233990000000     0.452350000000     0.0351812  
H13      H      0.162520000000     0.223450000000     0.046750000000     0.0422802  
H14      H      0.139460000000     0.198420000000     0.500150000000     0.0421468  
H15      H      0.307230000000     0.345450000000     0.983280000000     0.0444995  
H16      H      0.274200000000     0.359790000000     0.064180000000     0.0449593  
H17      H      0.234660000000     0.401160000000     0.555440000000     0.0402198  
H18      H      0.269140000000     0.360960000000     0.973760000000     0.0451207  
H19      H      0.304540000000     0.404220000000     0.483260000000     0.0331388  
H20      H      0.236090000000     0.343630000000     0.554820000000     0.0418464  
H21      H      0.224640000000     0.385660000000     0.517700000000     0.0433624  
H22      H      0.266950000000     0.131650000000     0.056040000000     0.0489019  
H23      H      0.302570000000     0.132850000000     0.001170000000     0.0388342  
H24      H      0.281060000000     0.092790000000     0.468470000000     0.0385543  
H25      H      0.230270000000     0.153360000000     0.054240000000     0.0458402  
H26      H      0.207930000000     0.116930000000     0.515650000000     0.0355307  
H27      H      0.283620000000     0.151800000000     0.468880000000     0.0423736  
H28      H      0.243650000000     0.112460000000     0.464940000000     0.0399308  
H29      H      0.217410000000     0.956590000000     0.359560000000     0.0451491  
H30      H      0.249020000000     0.038000000000     0.372450000000     0.0454381  
H31      H      0.289060000000     0.530190000000     0.413970000000     0.0401152  
H32      H      0.255930000000     0.948850000000     0.375200000000     0.0456323  
H33      H      0.220260000000     0.457970000000     0.419010000000     0.0324242  
H34      H      0.287010000000     0.528650000000     0.355830000000     0.0410764  
H35      H      0.298920000000     0.492580000000     0.398930000000     0.0434461  
H36      H      0.253260000000     0.042310000000     0.139850000000     0.0483886  
H37      H      0.305890000000     0.009370000000     0.139960000000     0.0440247  
H38      H      0.295150000000     0.459070000000     0.164520000000     0.0396138  
H39      H      0.224510000000     0.034740000000     0.109540000000     0.0487372  
H40      H      0.215230000000     0.482470000000     0.131580000000     0.0362615  
H41      H      0.309600000000     0.479410000000     0.110670000000     0.0418983  
H42      H      0.266220000000     0.449700000000     0.134730000000     0.0413548  
H43      H      0.015920000000     0.202750000000     0.371640000000     0.0441892  
H44      H      0.045960000000     0.258720000000     0.369680000000     0.0446205  
H45      H      0.514940000000     0.294630000000     0.337770000000     0.0397271  
H46      H      0.981870000000     0.200600000000     0.397220000000     0.0478185  
H47      H      0.452120000000     0.237440000000     0.364850000000     0.0353587  
H48      H      0.029820000000     0.288420000000     0.394290000000     0.0442089  
H49      H      0.481210000000     0.290400000000     0.363290000000     0.0408526  
H50      H      0.505300000000     0.205640000000     0.112840000000     0.0477903  
H51      H      0.479350000000     0.264380000000     0.111430000000     0.0418145  
H52      H      0.008510000000     0.296000000000     0.148380000000     0.0353157  
H53      H      0.541280000000     0.201060000000     0.090260000000     0.045705   
H54      H      0.070550000000     0.235970000000     0.125430000000     0.0343529  
H55      H      0.001510000000     0.292470000000     0.089630000000     0.0426658  
H56      H      0.044830000000     0.291040000000     0.126740000000     0.0392013  
H57      H      0.121360000000     0.505370000000     0.288420000000     0.0516528  
H58      H      0.122170000000     0.453250000000     0.256540000000     0.0419703  
H59      H      0.104330000000     0.464500000000     0.203040000000     0.038761   
H60      H      0.155110000000     0.030720000000     0.285130000000     0.049286   
H61      H      0.142010000000     0.039230000000     0.228680000000     0.037925   
H62      H      0.155100000000     0.446970000000     0.230200000000     0.0432611  
H63      H      0.137800000000     0.989810000000     0.196630000000     0.0417924  
H64      H      0.397080000000     0.444250000000     0.266050000000     0.0451717  
H65      H      0.385160000000     0.475970000000     0.211800000000     0.0421252  
H66      H      0.347910000000     0.019350000000     0.219390000000     0.0392051  
H67      H      0.418040000000     0.465420000000     0.295690000000     0.0480371  
H68      H      0.375240000000     0.001680000000     0.302340000000     0.0354135  
H69      H      0.404730000000     0.012950000000     0.208330000000     0.0463946  
H70      H      0.371980000000     0.034320000000     0.250990000000     0.0421042  
H71      H      0.062890000000     0.380520000000     0.239840000000     0.045164   
H72      H      0.522390000000     0.377940000000     0.192420000000     0.0405822  
H73      H      0.477520000000     0.344350000000     0.206020000000     0.0396584  
H74      H      0.052900000000     0.405040000000     0.272330000000     0.0471081  
H75      H      0.007140000000     0.371860000000     0.285170000000     0.0332586  
H76      H      0.486700000000     0.400930000000     0.195660000000     0.0419636  
H77      H      0.467160000000     0.368620000000     0.238810000000     0.0421914  
H78      H      0.053180000000     0.130730000000     0.248110000000     0.0485607  
H79      H      0.012960000000     0.133610000000     0.197730000000     0.038334   
H80      H      0.473350000000     0.094400000000     0.206410000000     0.04295    
H81      H      0.040900000000     0.153100000000     0.281760000000     0.0465987  
H82      H      0.494390000000     0.118470000000     0.289550000000     0.0364096  
H83      H      0.476140000000     0.153280000000     0.204510000000     0.043336   
H84      H      0.458050000000     0.113970000000     0.240040000000     0.0401915  
H85      H      0.389970000000     0.198300000000     0.512200000000     0.047532   
H86      H      0.394770000000     0.240510000000     0.556620000000     0.0418441  
H87      H      0.422040000000     0.285610000000     0.534550000000     0.0393745  
H88      H      0.357300000000     0.201770000000     0.985080000000     0.0445979  
H89      H      0.381040000000     0.250380000000     0.964420000000     0.0385031  
H90      H      0.366840000000     0.272290000000     0.555390000000     0.0404155  
H91      H      0.390390000000     0.291740000000     0.006690000000     0.0413953  
H92      H      0.141900000000     0.292080000000     0.493260000000     0.0472586  
H93      H      0.134950000000     0.255300000000     0.543370000000     0.0429873  
H94      H      0.108600000000     0.206490000000     0.528450000000     0.0394616  
H95      H      0.172490000000     0.281900000000     0.965710000000     0.047581   
H96      H      0.144560000000     0.233990000000     0.952350000000     0.0355899  
H97      H      0.162520000000     0.223450000000     0.546750000000     0.0423711  
H98      H      0.139460000000     0.198420000000     0.000160000000     0.0418124  
H99      H      0.307230000000     0.345450000000     0.483280000000     0.044764   
H100     H      0.274200000000     0.359790000000     0.564180000000     0.0449843  
H101     H      0.234660000000     0.401160000000     0.055440000000     0.040204   
H102     H      0.269140000000     0.360960000000     0.473760000000     0.045465   
H103     H      0.304540000000     0.404220000000     0.983260000000     0.0354822  
H104     H      0.236090000000     0.343630000000     0.054820000000     0.0417171  
H105     H      0.224640000000     0.385660000000     0.017700000000     0.0428988  
H106     H      0.266950000000     0.131650000000     0.556040000000     0.0489634  
H107     H      0.302570000000     0.132850000000     0.501170000000     0.0410107  
H108     H      0.281060000000     0.092790000000     0.968470000000     0.0390385  
H109     H      0.230270000000     0.153360000000     0.554240000000     0.0458501  
H110     H      0.207930000000     0.116930000000     0.015650000000     0.0350249  
H111     H      0.283620000000     0.151800000000     0.968880000000     0.0419076  
H112     H      0.243650000000     0.112460000000     0.964940000000     0.0402963  
H113     H      0.217410000000     0.956590000000     0.859560000000     0.0451898  
H114     H      0.249020000000     0.038000000000     0.872450000000     0.0454971  
H115     H      0.289060000000     0.530190000000     0.913970000000     0.0403326  
H116     H      0.255930000000     0.948850000000     0.875200000000     0.0457085  
H117     H      0.220260000000     0.457970000000     0.919010000000     0.0327054  
H118     H      0.287010000000     0.528650000000     0.855830000000     0.0411188  
H119     H      0.298920000000     0.492580000000     0.898930000000     0.043602   
H120     H      0.253260000000     0.042310000000     0.639850000000     0.0483948  
H121     H      0.305890000000     0.009370000000     0.639960000000     0.0440623  
H122     H      0.295150000000     0.459070000000     0.664520000000     0.0396256  
H123     H      0.224510000000     0.034740000000     0.609540000000     0.0487647  
H124     H      0.215230000000     0.482470000000     0.631580000000     0.0363044  
H125     H      0.309600000000     0.479410000000     0.610660000000     0.0419553  
H126     H      0.266220000000     0.449700000000     0.634720000000     0.0413565  
H127     H      0.015920000000     0.202750000000     0.871640000000     0.0442378  
H128     H      0.045960000000     0.258720000000     0.869680000000     0.044641   
H129     H      0.514940000000     0.294630000000     0.837770000000     0.0397505  
H130     H      0.981870000000     0.200600000000     0.897220000000     0.0478869  
H131     H      0.452120000000     0.237440000000     0.864860000000     0.0353781  
H132     H      0.029820000000     0.288420000000     0.894290000000     0.0442804  
H133     H      0.481210000000     0.290400000000     0.863290000000     0.040911   
H134     H      0.505300000000     0.205640000000     0.612840000000     0.0478965  
H135     H      0.479350000000     0.264380000000     0.611430000000     0.0419087  
H136     H      0.008510000000     0.296000000000     0.648380000000     0.0353551  
H137     H      0.541280000000     0.201060000000     0.590270000000     0.0458895  
H138     H      0.070550000000     0.235970000000     0.625430000000     0.0344179  
H139     H      0.001510000000     0.292470000000     0.589630000000     0.0428669  
H140     H      0.044830000000     0.291040000000     0.626740000000     0.039296   
H141     H      0.121360000000     0.505370000000     0.788420000000     0.0516946  
H142     H      0.122170000000     0.453250000000     0.756540000000     0.0419917  
H143     H      0.104330000000     0.464500000000     0.703040000000     0.0388     
H144     H      0.155110000000     0.030720000000     0.785130000000     0.0493103  
H145     H      0.142010000000     0.039230000000     0.728680000000     0.0379352  
H146     H      0.155100000000     0.446970000000     0.730200000000     0.0432719  
H147     H      0.137800000000     0.989810000000     0.696630000000     0.0418191  
H148     H      0.397080000000     0.444250000000     0.766050000000     0.045186   
H149     H      0.385160000000     0.475970000000     0.711800000000     0.0421519  
H150     H      0.347910000000     0.019350000000     0.719390000000     0.0392223  
H151     H      0.418040000000     0.465420000000     0.795690000000     0.0480883  
H152     H      0.375240000000     0.001680000000     0.802340000000     0.0354646  
H153     H      0.404730000000     0.012950000000     0.708330000000     0.0464301  
H154     H      0.371980000000     0.034320000000     0.750990000000     0.0421154  
H155     H      0.062890000000     0.380520000000     0.739840000000     0.0451793  
H156     H      0.522390000000     0.377940000000     0.692420000000     0.040647   
H157     H      0.477520000000     0.344350000000     0.706020000000     0.0396844  
H158     H      0.052900000000     0.405040000000     0.772330000000     0.0471359  
H159     H      0.007140000000     0.371860000000     0.785170000000     0.0332912  
H160     H      0.486700000000     0.400930000000     0.695670000000     0.0420307  
H161     H      0.467160000000     0.368620000000     0.738810000000     0.0421974  
H162     H      0.053180000000     0.130730000000     0.748110000000     0.0485653  
H163     H      0.012960000000     0.133610000000     0.697730000000     0.0383608  
H164     H      0.473350000000     0.094400000000     0.706410000000     0.0429907  
H165     H      0.040900000000     0.153100000000     0.781760000000     0.0466021  
H166     H      0.494390000000     0.118470000000     0.789550000000     0.0364466  
H167     H      0.476140000000     0.153280000000     0.704510000000     0.0433619  
H168     H      0.458050000000     0.113970000000     0.740040000000     0.0402062  
H169     H      0.389970000000     0.698300000000     0.012200000000     0.0452349  
H170     H      0.394770000000     0.740510000000     0.056620000000     0.0415235  
H171     H      0.422040000000     0.785610000000     0.034550000000     0.0391819  
H172     H      0.357300000000     0.701780000000     0.485080000000     0.0449772  
H173     H      0.381040000000     0.750380000000     0.464420000000     0.0379827  
H174     H      0.366840000000     0.772290000000     0.055390000000     0.0402628  
H175     H      0.390390000000     0.791740000000     0.506690000000     0.0417471  
H176     H      0.141900000000     0.792080000000     0.993260000000     0.0475832  
H177     H      0.134950000000     0.755300000000     0.043370000000     0.042534   
H178     H      0.108600000000     0.706490000000     0.028450000000     0.0392894  
H179     H      0.172490000000     0.781900000000     0.465710000000     0.0475602  
H180     H      0.144560000000     0.733990000000     0.452350000000     0.0351617  
H181     H      0.162520000000     0.723450000000     0.046750000000     0.0422682  
H182     H      0.139460000000     0.698420000000     0.500150000000     0.0420925  
H183     H      0.307230000000     0.845450000000     0.983280000000     0.0444748  
H184     H      0.274200000000     0.859790000000     0.064180000000     0.044917   
H185     H      0.234660000000     0.901160000000     0.555440000000     0.0400487  
H186     H      0.269140000000     0.860960000000     0.973760000000     0.0450858  
H187     H      0.304540000000     0.904220000000     0.483260000000     0.0329205  
H188     H      0.236090000000     0.843630000000     0.554820000000     0.0418154  
H189     H      0.224640000000     0.885660000000     0.517700000000     0.0432686  
H190     H      0.266950000000     0.631650000000     0.056040000000     0.0488909  
H191     H      0.302570000000     0.632850000000     0.001170000000     0.0387765  
H192     H      0.281060000000     0.592780000000     0.468470000000     0.0384152  
H193     H      0.230270000000     0.653360000000     0.054240000000     0.0458367  
H194     H      0.207930000000     0.616930000000     0.515650000000     0.0354163  
H195     H      0.283620000000     0.651800000000     0.468880000000     0.042345   
H196     H      0.243650000000     0.612460000000     0.464940000000     0.0398323  
H197     H      0.217410000000     0.456590000000     0.359560000000     0.0456993  
H198     H      0.249020000000     0.538000000000     0.372450000000     0.045307   
H199     H      0.289060000000     0.030190000000     0.413970000000     0.0394979  
H200     H      0.255930000000     0.448850000000     0.375200000000     0.0458257  
H201     H      0.220260000000     0.957970000000     0.419010000000     0.032765   
H202     H      0.287010000000     0.028650000000     0.355830000000     0.0415658  
H203     H      0.298920000000     0.992580000000     0.398930000000     0.0405569  
H204     H      0.253260000000     0.542310000000     0.139850000000     0.0479901  
H205     H      0.305890000000     0.509370000000     0.139960000000     0.041021   
H206     H      0.295150000000     0.959070000000     0.164520000000     0.0389963  
H207     H      0.224510000000     0.534740000000     0.109540000000     0.048231   
H208     H      0.215230000000     0.982470000000     0.131580000000     0.033394   
H209     H      0.309600000000     0.979410000000     0.110670000000     0.0422202  
H210     H      0.266220000000     0.949700000000     0.134730000000     0.0408267  
H211     H      0.015920000000     0.702750000000     0.371640000000     0.0441842  
H212     H      0.045960000000     0.758730000000     0.369680000000     0.0446092  
H213     H      0.514940000000     0.794630000000     0.337770000000     0.0396843  
H214     H      0.981870000000     0.700600000000     0.397220000000     0.047797   
H215     H      0.452120000000     0.737440000000     0.364850000000     0.0353472  
H216     H      0.029820000000     0.788420000000     0.394290000000     0.044156   
H217     H      0.481210000000     0.790400000000     0.363290000000     0.0408121  
H218     H      0.505300000000     0.705640000000     0.112840000000     0.0477551  
H219     H      0.479350000000     0.764380000000     0.111430000000     0.041796   
H220     H      0.008510000000     0.796000000000     0.148380000000     0.0352663  
H221     H      0.541280000000     0.701060000000     0.090260000000     0.0456563  
H222     H      0.070550000000     0.735970000000     0.125430000000     0.0343436  
H223     H      0.001510000000     0.792470000000     0.089630000000     0.0426     
H224     H      0.044830000000     0.791050000000     0.126740000000     0.0391361  
H225     H      0.121360000000     0.005370000000     0.288420000000     0.0520796  
H226     H      0.122170000000     0.953240000000     0.256540000000     0.0413928  
H227     H      0.104330000000     0.964500000000     0.203040000000     0.0385694  
H228     H      0.155110000000     0.530720000000     0.285130000000     0.0493632  
H229     H      0.142010000000     0.539230000000     0.228680000000     0.0374084  
H230     H      0.155100000000     0.946970000000     0.230200000000     0.0431276  
H231     H      0.137800000000     0.489810000000     0.196630000000     0.0423487  
H232     H      0.397080000000     0.944250000000     0.266050000000     0.0451267  
H233     H      0.385160000000     0.975970000000     0.211800000000     0.0430107  
H234     H      0.347910000000     0.519350000000     0.219390000000     0.0397497  
H235     H      0.418040000000     0.965420000000     0.295690000000     0.0475436  
H236     H      0.375240000000     0.501670000000     0.302340000000     0.0326681  
H237     H      0.404730000000     0.512950000000     0.208330000000     0.0430378  
H238     H      0.371980000000     0.534320000000     0.250990000000     0.0428062  
H239     H      0.062890000000     0.880520000000     0.239840000000     0.0450763  
H240     H      0.522390000000     0.877940000000     0.192420000000     0.0404334  
H241     H      0.477520000000     0.844350000000     0.206020000000     0.0396193  
H242     H      0.052900000000     0.905040000000     0.272330000000     0.0469176  
H243     H      0.007140000000     0.871860000000     0.285170000000     0.0331925  
H244     H      0.486700000000     0.900930000000     0.195660000000     0.0417691  
H245     H      0.467160000000     0.868620000000     0.238810000000     0.0421601  
H246     H      0.053180000000     0.630730000000     0.248110000000     0.0485689  
H247     H      0.012960000000     0.633610000000     0.197730000000     0.0382787  
H248     H      0.473350000000     0.594400000000     0.206410000000     0.0427866  
H249     H      0.040900000000     0.653100000000     0.281760000000     0.0466028  
H250     H      0.494390000000     0.618470000000     0.289550000000     0.0362607  
H251     H      0.476140000000     0.653280000000     0.204510000000     0.0433038  
H252     H      0.458050000000     0.613970000000     0.240040000000     0.0400623  
H253     H      0.389970000000     0.698300000000     0.512200000000     0.0475359  
H254     H      0.394770000000     0.740510000000     0.556620000000     0.0418166  
H255     H      0.422040000000     0.785610000000     0.534550000000     0.0393231  
H256     H      0.357300000000     0.701780000000     0.985080000000     0.0446328  
H257     H      0.381040000000     0.750380000000     0.964420000000     0.038477   
H258     H      0.366840000000     0.772290000000     0.555390000000     0.0403819  
H259     H      0.390390000000     0.791740000000     0.006690000000     0.041351   
H260     H      0.141900000000     0.792080000000     0.493260000000     0.0472069  
H261     H      0.134950000000     0.755300000000     0.543370000000     0.0429732  
H262     H      0.108600000000     0.706490000000     0.528450000000     0.0394129  
H263     H      0.172490000000     0.781900000000     0.965710000000     0.0475596  
H264     H      0.144560000000     0.733990000000     0.952350000000     0.0355707  
H265     H      0.162520000000     0.723450000000     0.546750000000     0.042359   
H266     H      0.139460000000     0.698420000000     0.000160000000     0.0417584  
H267     H      0.307230000000     0.845450000000     0.483280000000     0.0447385  
H268     H      0.274200000000     0.859790000000     0.564180000000     0.0449419  
H269     H      0.234660000000     0.901160000000     0.055440000000     0.0400334  
H270     H      0.269140000000     0.860960000000     0.473760000000     0.0454294  
H271     H      0.304540000000     0.904220000000     0.983260000000     0.0352597  
H272     H      0.236090000000     0.843630000000     0.054820000000     0.0416864  
H273     H      0.224640000000     0.885660000000     0.017700000000     0.0428065  
H274     H      0.266950000000     0.631650000000     0.556040000000     0.0489526  
H275     H      0.302570000000     0.632850000000     0.501170000000     0.0409551  
H276     H      0.281060000000     0.592780000000     0.968470000000     0.038901   
H277     H      0.230270000000     0.653360000000     0.554240000000     0.0458466  
H278     H      0.207930000000     0.616930000000     0.015650000000     0.0349107  
H279     H      0.283620000000     0.651800000000     0.968880000000     0.0418785  
H280     H      0.243650000000     0.612460000000     0.964940000000     0.0401986  
H281     H      0.217410000000     0.456590000000     0.859560000000     0.0457395  
H282     H      0.249020000000     0.538000000000     0.872450000000     0.0453665  
H283     H      0.289060000000     0.030190000000     0.913970000000     0.0397158  
H284     H      0.255930000000     0.448850000000     0.875200000000     0.0459019  
H285     H      0.220260000000     0.957970000000     0.919010000000     0.0330447  
H286     H      0.287010000000     0.028650000000     0.855830000000     0.0416073  
H287     H      0.298920000000     0.992580000000     0.898930000000     0.0407171  
H288     H      0.253260000000     0.542310000000     0.639850000000     0.0479958  
H289     H      0.305890000000     0.509370000000     0.639960000000     0.0410546  
H290     H      0.295150000000     0.959070000000     0.664520000000     0.0390073  
H291     H      0.224510000000     0.534740000000     0.609540000000     0.0482578  
H292     H      0.215230000000     0.982470000000     0.631580000000     0.0334326  
H293     H      0.309600000000     0.979410000000     0.610660000000     0.042276   
H294     H      0.266220000000     0.949700000000     0.634720000000     0.0408277  
H295     H      0.015920000000     0.702750000000     0.871640000000     0.0442331  
H296     H      0.045960000000     0.758730000000     0.869680000000     0.0446297  
H297     H      0.514940000000     0.794630000000     0.837770000000     0.0397077  
H298     H      0.981870000000     0.700600000000     0.897220000000     0.0478657  
H299     H      0.452120000000     0.737440000000     0.864860000000     0.0353665  
H300     H      0.029820000000     0.788420000000     0.894290000000     0.0442275  
H301     H      0.481210000000     0.790400000000     0.863290000000     0.0408704  
H302     H      0.505300000000     0.705640000000     0.612840000000     0.0478613  
H303     H      0.479350000000     0.764380000000     0.611430000000     0.04189    
H304     H      0.008510000000     0.796000000000     0.648380000000     0.0353054  
H305     H      0.541280000000     0.701060000000     0.590270000000     0.0458408  
H306     H      0.070550000000     0.735970000000     0.625430000000     0.0344086  
H307     H      0.001510000000     0.792470000000     0.589630000000     0.0428005  
H308     H      0.044830000000     0.791050000000     0.626740000000     0.0392307  
H309     H      0.121360000000     0.005370000000     0.788420000000     0.0521205  
H310     H      0.122170000000     0.953240000000     0.756540000000     0.0414143  
H311     H      0.104330000000     0.964500000000     0.703040000000     0.0386079  
H312     H      0.155110000000     0.530720000000     0.785130000000     0.0493878  
H313     H      0.142010000000     0.539230000000     0.728680000000     0.0374184  
H314     H      0.155100000000     0.946970000000     0.730200000000     0.0431382  
H315     H      0.137800000000     0.489810000000     0.696630000000     0.0423765  
H316     H      0.397080000000     0.944250000000     0.766050000000     0.0451411  
H317     H      0.385160000000     0.975970000000     0.711800000000     0.0430375  
H318     H      0.347910000000     0.519350000000     0.719390000000     0.0397671  
H319     H      0.418040000000     0.965420000000     0.795690000000     0.0475949  
H320     H      0.375240000000     0.501670000000     0.802340000000     0.0327211  
H321     H      0.404730000000     0.512950000000     0.708330000000     0.043072   
H322     H      0.371980000000     0.534320000000     0.750990000000     0.0428178  
H323     H      0.062890000000     0.880520000000     0.739840000000     0.0450915  
H324     H      0.522390000000     0.877940000000     0.692420000000     0.0404979  
H325     H      0.477520000000     0.844350000000     0.706020000000     0.0396452  
H326     H      0.052900000000     0.905040000000     0.772330000000     0.0469454  
H327     H      0.007140000000     0.871860000000     0.785170000000     0.0332252  
H328     H      0.486700000000     0.900930000000     0.695670000000     0.0418359  
H329     H      0.467160000000     0.868620000000     0.738810000000     0.0421661  
H330     H      0.053180000000     0.630730000000     0.748110000000     0.0485733  
H331     H      0.012960000000     0.633610000000     0.697730000000     0.0383054  
H332     H      0.473350000000     0.594400000000     0.706410000000     0.0428273  
H333     H      0.040900000000     0.653100000000     0.781760000000     0.0466063  
H334     H      0.494390000000     0.618470000000     0.789550000000     0.036298   
H335     H      0.476140000000     0.653280000000     0.704510000000     0.0433297  
H336     H      0.458050000000     0.613970000000     0.740040000000     0.040077   
H337     H      0.889970000000     0.198300000000     0.012200000000     0.045498   
H338     H      0.894770000000     0.240510000000     0.056620000000     0.0418802  
H339     H      0.922040000000     0.285610000000     0.034550000000     0.039759   
H340     H      0.857300000000     0.201770000000     0.485080000000     0.0450094  
H341     H      0.881040000000     0.250380000000     0.464420000000     0.038144   
H342     H      0.866840000000     0.272290000000     0.055390000000     0.0404409  
H343     H      0.890390000000     0.291740000000     0.506690000000     0.0420042  
H344     H      0.641900000000     0.292080000000     0.993260000000     0.0476872  
H345     H      0.634950000000     0.255300000000     0.043370000000     0.0425557  
H346     H      0.608600000000     0.206490000000     0.028450000000     0.0393842  
H347     H      0.672490000000     0.281900000000     0.465710000000     0.0475992  
H348     H      0.644560000000     0.233990000000     0.452350000000     0.0351927  
H349     H      0.662520000000     0.223450000000     0.046750000000     0.0422898  
H350     H      0.639460000000     0.198420000000     0.500150000000     0.0421969  
H351     H      0.807230000000     0.345450000000     0.983280000000     0.0445692  
H352     H      0.774200000000     0.359790000000     0.064180000000     0.0449903  
H353     H      0.734660000000     0.401160000000     0.555440000000     0.0402484  
H354     H      0.769140000000     0.360960000000     0.973760000000     0.0451371  
H355     H      0.804540000000     0.404220000000     0.483260000000     0.0332679  
H356     H      0.736090000000     0.343630000000     0.554820000000     0.0418602  
H357     H      0.724640000000     0.385660000000     0.517700000000     0.0433967  
H358     H      0.766950000000     0.131650000000     0.056040000000     0.0489535  
H359     H      0.802570000000     0.132850000000     0.001170000000     0.0389377  
H360     H      0.781060000000     0.092790000000     0.468470000000     0.0386222  
H361     H      0.730270000000     0.153360000000     0.054240000000     0.04585    
H362     H      0.707930000000     0.116930000000     0.515650000000     0.0355721  
H363     H      0.783620000000     0.151800000000     0.468880000000     0.0424179  
H364     H      0.743650000000     0.112460000000     0.464940000000     0.0399506  
H365     H      0.717410000000     0.956590000000     0.359560000000     0.0451691  
H366     H      0.749020000000     0.038000000000     0.372450000000     0.0454514  
H367     H      0.789060000000     0.530190000000     0.413970000000     0.0402054  
H368     H      0.755930000000     0.948850000000     0.375200000000     0.0456644  
H369     H      0.720260000000     0.457970000000     0.419010000000     0.0324719  
H370     H      0.787010000000     0.528650000000     0.355830000000     0.0411348  
H371     H      0.798920000000     0.492580000000     0.398930000000     0.0435623  
H372     H      0.753260000000     0.042310000000     0.139850000000     0.0484066  
H373     H      0.805890000000     0.009370000000     0.139960000000     0.0441254  
H374     H      0.795150000000     0.459070000000     0.164520000000     0.0396754  
H375     H      0.724500000000     0.034740000000     0.109540000000     0.0487444  
H376     H      0.715230000000     0.482470000000     0.131580000000     0.0362921  
H377     H      0.809600000000     0.479410000000     0.110670000000     0.0420353  
H378     H      0.766220000000     0.449700000000     0.134730000000     0.041379   
H379     H      0.515920000000     0.202750000000     0.371640000000     0.0478547  
H380     H      0.545960000000     0.258720000000     0.369680000000     0.0451773  
H381     H      0.014940000000     0.294630000000     0.337770000000     0.0405003  
H382     H      0.481870000000     0.200600000000     0.397220000000     0.0482478  
H383     H      0.952120000000     0.237440000000     0.364850000000     0.0359977  
H384     H      0.529820000000     0.288420000000     0.394290000000     0.0450291  
H385     H      0.981210000000     0.290400000000     0.363290000000     0.0446796  
H386     H      0.005300000000     0.205640000000     0.112840000000     0.0468997  
H387     H      0.979350000000     0.264380000000     0.111430000000     0.0452886  
H388     H      0.508510000000     0.296000000000     0.148380000000     0.036582   
H389     H      0.041280000000     0.201060000000     0.090260000000     0.0455487  
H390     H      0.570550000000     0.235970000000     0.125430000000     0.0342765  
H391     H      0.501510000000     0.292470000000     0.089630000000     0.0425515  
H392     H      0.544830000000     0.291040000000     0.126740000000     0.0394776  
H393     H      0.621360000000     0.505370000000     0.288420000000     0.0517113  
H394     H      0.622170000000     0.453250000000     0.256540000000     0.0419903  
H395     H      0.604330000000     0.464500000000     0.203040000000     0.0388235  
H396     H      0.655110000000     0.030720000000     0.285130000000     0.0493061  
H397     H      0.642010000000     0.039230000000     0.228680000000     0.0379368  
H398     H      0.655100000000     0.446970000000     0.230200000000     0.0432711  
H399     H      0.637800000000     0.989810000000     0.196630000000     0.0418368  
H400     H      0.897080000000     0.444250000000     0.266050000000     0.0454473  
H401     H      0.885160000000     0.475970000000     0.211800000000     0.0423328  
H402     H      0.847910000000     0.019350000000     0.219390000000     0.0392872  
H403     H      0.918040000000     0.465420000000     0.295690000000     0.0485121  
H404     H      0.875240000000     0.001680000000     0.302340000000     0.035621   
H405     H      0.904730000000     0.012950000000     0.208330000000     0.0467195  
H406     H      0.871980000000     0.034320000000     0.250990000000     0.0422759  
H407     H      0.562890000000     0.380520000000     0.239840000000     0.0450386  
H408     H      0.022390000000     0.377940000000     0.192420000000     0.0416984  
H409     H      0.977520000000     0.344350000000     0.206020000000     0.0391017  
H410     H      0.552900000000     0.405040000000     0.272330000000     0.0471166  
H411     H      0.507140000000     0.371860000000     0.285170000000     0.034241   
H412     H      0.986700000000     0.400930000000     0.195660000000     0.0462681  
H413     H      0.967160000000     0.368620000000     0.238810000000     0.0416105  
H414     H      0.553180000000     0.130730000000     0.248110000000     0.0487502  
H415     H      0.512960000000     0.133610000000     0.197730000000     0.0416427  
H416     H      0.973350000000     0.094400000000     0.206410000000     0.0439827  
H417     H      0.540900000000     0.153100000000     0.281760000000     0.0471752  
H418     H      0.994390000000     0.118470000000     0.289550000000     0.0397498  
H419     H      0.976140000000     0.153280000000     0.204510000000     0.0427919  
H420     H      0.958050000000     0.113970000000     0.240040000000     0.040523   
H421     H      0.889970000000     0.198300000000     0.512200000000     0.0478063  
H422     H      0.894770000000     0.240510000000     0.556620000000     0.0421754  
H423     H      0.922040000000     0.285610000000     0.534550000000     0.0399033  
H424     H      0.857300000000     0.201770000000     0.985080000000     0.0446651  
H425     H      0.881040000000     0.250380000000     0.964420000000     0.0386399  
H426     H      0.866840000000     0.272290000000     0.555390000000     0.040561   
H427     H      0.890390000000     0.291740000000     0.006690000000     0.0416044  
H428     H      0.641900000000     0.292080000000     0.493260000000     0.0473097  
H429     H      0.634950000000     0.255300000000     0.543370000000     0.0429981  
H430     H      0.608600000000     0.206490000000     0.528450000000     0.0395092  
H431     H      0.672490000000     0.281900000000     0.965710000000     0.0475985  
H432     H      0.644560000000     0.233990000000     0.952350000000     0.0356034  
H433     H      0.662520000000     0.223450000000     0.546750000000     0.0423811  
H434     H      0.639460000000     0.198420000000     0.000160000000     0.0418596  
H435     H      0.807230000000     0.345450000000     0.483280000000     0.0448352  
H436     H      0.774200000000     0.359790000000     0.564180000000     0.0450154  
H437     H      0.734660000000     0.401160000000     0.055440000000     0.0402322  
H438     H      0.769140000000     0.360960000000     0.473760000000     0.0454826  
H439     H      0.804540000000     0.404220000000     0.983260000000     0.0356202  
H440     H      0.736090000000     0.343630000000     0.054820000000     0.04173    
H441     H      0.724640000000     0.385660000000     0.017700000000     0.04293    
H442     H      0.766950000000     0.131650000000     0.556040000000     0.0490153  
H443     H      0.802570000000     0.132850000000     0.501170000000     0.0411239  
H444     H      0.781060000000     0.092790000000     0.968470000000     0.039108   
H445     H      0.730270000000     0.153360000000     0.554240000000     0.0458601  
H446     H      0.707930000000     0.116930000000     0.015650000000     0.0350631  
H447     H      0.783620000000     0.151800000000     0.968880000000     0.0419499  
H448     H      0.743650000000     0.112460000000     0.964940000000     0.0403176  
H449     H      0.717410000000     0.956590000000     0.859560000000     0.04521    
H450     H      0.749020000000     0.038000000000     0.872450000000     0.0455107  
H451     H      0.789060000000     0.530190000000     0.913970000000     0.0404235  
H452     H      0.755930000000     0.948850000000     0.875200000000     0.0457408  
H453     H      0.720260000000     0.457970000000     0.919010000000     0.0327542  
H454     H      0.787010000000     0.528650000000     0.855830000000     0.0411773  
H455     H      0.798920000000     0.492580000000     0.898930000000     0.0437186  
H456     H      0.753260000000     0.042310000000     0.639850000000     0.0484129  
H457     H      0.805890000000     0.009370000000     0.639960000000     0.0441634  
H458     H      0.795150000000     0.459070000000     0.664520000000     0.0396875  
H459     H      0.724500000000     0.034740000000     0.609540000000     0.0487722  
H460     H      0.715230000000     0.482470000000     0.631580000000     0.0363355  
H461     H      0.809600000000     0.479410000000     0.610660000000     0.0420929  
H462     H      0.766220000000     0.449700000000     0.634720000000     0.0413808  
H463     H      0.515920000000     0.202750000000     0.871640000000     0.047908   
H464     H      0.545960000000     0.258720000000     0.869680000000     0.0451986  
H465     H      0.014940000000     0.294630000000     0.837770000000     0.0405246  
H466     H      0.481870000000     0.200600000000     0.897220000000     0.0483174  
H467     H      0.952120000000     0.237440000000     0.864860000000     0.0360176  
H468     H      0.529820000000     0.288420000000     0.894290000000     0.0451019  
H469     H      0.981210000000     0.290400000000     0.863290000000     0.0447431  
H470     H      0.005300000000     0.205640000000     0.612840000000     0.0470014  
H471     H      0.979350000000     0.264380000000     0.611430000000     0.045399   
H472     H      0.508510000000     0.296000000000     0.648380000000     0.0366269  
H473     H      0.041280000000     0.201060000000     0.590270000000     0.0457312  
H474     H      0.570550000000     0.235970000000     0.625430000000     0.0343417  
H475     H      0.501510000000     0.292470000000     0.589630000000     0.0427532  
H476     H      0.544830000000     0.291040000000     0.626740000000     0.0395744  
H477     H      0.621360000000     0.505370000000     0.788420000000     0.0517533  
H478     H      0.622170000000     0.453250000000     0.756540000000     0.0420118  
H479     H      0.604330000000     0.464500000000     0.703040000000     0.0388631  
H480     H      0.655110000000     0.030720000000     0.785130000000     0.0493304  
H481     H      0.642010000000     0.039230000000     0.728680000000     0.0379471  
H482     H      0.655100000000     0.446970000000     0.730200000000     0.043282   
H483     H      0.637800000000     0.989810000000     0.696630000000     0.041864   
H484     H      0.897080000000     0.444250000000     0.766050000000     0.0454623  
H485     H      0.885160000000     0.475970000000     0.711800000000     0.0423603  
H486     H      0.847910000000     0.019350000000     0.719390000000     0.0393046  
H487     H      0.918040000000     0.465420000000     0.795690000000     0.0485639  
H488     H      0.875240000000     0.001680000000     0.802340000000     0.0356724  
H489     H      0.904730000000     0.012950000000     0.708330000000     0.0467562  
H490     H      0.871980000000     0.034320000000     0.750990000000     0.0422875  
H491     H      0.562890000000     0.380520000000     0.739840000000     0.0450537  
H492     H      0.022390000000     0.377940000000     0.692420000000     0.0417668  
H493     H      0.977520000000     0.344350000000     0.706020000000     0.0391262  
H494     H      0.552900000000     0.405040000000     0.772330000000     0.0471443  
H495     H      0.507140000000     0.371860000000     0.785170000000     0.0342761  
H496     H      0.986700000000     0.400930000000     0.695670000000     0.0463505  
H497     H      0.967160000000     0.368620000000     0.738810000000     0.0416141  
H498     H      0.553180000000     0.130730000000     0.748110000000     0.0487552  
H499     H      0.512960000000     0.133610000000     0.697730000000     0.0416802  
H500     H      0.973350000000     0.094400000000     0.706410000000     0.0440269  
H501     H      0.540900000000     0.153100000000     0.781760000000     0.0471798  
H502     H      0.994390000000     0.118470000000     0.789550000000     0.0397936  
H503     H      0.976140000000     0.153280000000     0.704510000000     0.0428166  
H504     H      0.958050000000     0.113970000000     0.740040000000     0.0405386  
H505     H      0.889970000000     0.698300000000     0.012200000000     0.0455011  
H506     H      0.894770000000     0.740510000000     0.056620000000     0.0418533  
H507     H      0.922040000000     0.785610000000     0.034550000000     0.0397088  
H508     H      0.857300000000     0.701780000000     0.485080000000     0.0450461  
H509     H      0.881040000000     0.750380000000     0.464420000000     0.038118   
H510     H      0.866840000000     0.772290000000     0.055390000000     0.0404076  
H511     H      0.890390000000     0.791740000000     0.506690000000     0.0419589  
H512     H      0.641900000000     0.792080000000     0.993260000000     0.0476354  
H513     H      0.634950000000     0.755300000000     0.043370000000     0.042542   
H514     H      0.608600000000     0.706490000000     0.028450000000     0.0393357  
H515     H      0.672490000000     0.781900000000     0.465710000000     0.0475779  
H516     H      0.644560000000     0.733990000000     0.452350000000     0.0351732  
H517     H      0.662520000000     0.723450000000     0.046750000000     0.0422777  
H518     H      0.639460000000     0.698420000000     0.500150000000     0.0421427  
H519     H      0.807230000000     0.845450000000     0.983280000000     0.0445446  
H520     H      0.774200000000     0.859790000000     0.064180000000     0.0449481  
H521     H      0.734660000000     0.901160000000     0.555440000000     0.0400774  
H522     H      0.769140000000     0.860960000000     0.973760000000     0.0451022  
H523     H      0.804540000000     0.904220000000     0.483260000000     0.03305    
H524     H      0.736090000000     0.843630000000     0.554820000000     0.0418292  
H525     H      0.724640000000     0.885660000000     0.517700000000     0.0433028  
H526     H      0.766950000000     0.631650000000     0.056040000000     0.0489428  
H527     H      0.802570000000     0.632850000000     0.001170000000     0.0388805  
H528     H      0.781060000000     0.592780000000     0.468470000000     0.0384837  
H529     H      0.730270000000     0.653360000000     0.054240000000     0.0458465  
H530     H      0.707930000000     0.616930000000     0.515650000000     0.035458   
H531     H      0.783620000000     0.651800000000     0.468880000000     0.0423895  
H532     H      0.743650000000     0.612460000000     0.464940000000     0.0398523  
H533     H      0.717410000000     0.456590000000     0.359560000000     0.0457189  
H534     H      0.749020000000     0.538000000000     0.372450000000     0.0453207  
H535     H      0.789060000000     0.030190000000     0.413970000000     0.0395891  
H536     H      0.755930000000     0.448850000000     0.375200000000     0.0458574  
H537     H      0.720260000000     0.957970000000     0.419010000000     0.032812   
H538     H      0.787010000000     0.028650000000     0.355830000000     0.0416224  
H539     H      0.798920000000     0.992580000000     0.398930000000     0.0406791  
H540     H      0.753260000000     0.542310000000     0.139850000000     0.0480091  
H541     H      0.805890000000     0.509370000000     0.139960000000     0.0411294  
H542     H      0.795150000000     0.959070000000     0.164520000000     0.0390593  
H543     H      0.724500000000     0.534740000000     0.109540000000     0.0482393  
H544     H      0.715230000000     0.982470000000     0.131580000000     0.0334288  
H545     H      0.809600000000     0.979410000000     0.110670000000     0.0423562  
H546     H      0.766220000000     0.949700000000     0.134730000000     0.0408519  
H547     H      0.515920000000     0.702750000000     0.371640000000     0.0478579  
H548     H      0.545960000000     0.758730000000     0.369680000000     0.0451667  
H549     H      0.014940000000     0.794630000000     0.337770000000     0.0404585  
H550     H      0.481870000000     0.700600000000     0.397220000000     0.0482282  
H551     H      0.952120000000     0.737440000000     0.364850000000     0.0359872  
H552     H      0.529820000000     0.788420000000     0.394290000000     0.0449766  
H553     H      0.981210000000     0.790400000000     0.363290000000     0.044643   
H554     H      0.005300000000     0.705640000000     0.112840000000     0.0468635  
H555     H      0.979350000000     0.764380000000     0.111430000000     0.0452744  
H556     H      0.508510000000     0.796000000000     0.148380000000     0.0365331  
H557     H      0.041280000000     0.701060000000     0.090260000000     0.0454997  
H558     H      0.570550000000     0.735970000000     0.125430000000     0.0342671  
H559     H      0.501510000000     0.792470000000     0.089630000000     0.0424846  
H560     H      0.544830000000     0.791050000000     0.126740000000     0.0394124  
H561     H      0.621360000000     0.005370000000     0.288420000000     0.0521375  
H562     H      0.622170000000     0.953240000000     0.256540000000     0.0414128  
H563     H      0.604330000000     0.964500000000     0.203040000000     0.0386315  
H564     H      0.655110000000     0.530720000000     0.285130000000     0.049384   
H565     H      0.642010000000     0.539230000000     0.228680000000     0.0374206  
H566     H      0.655100000000     0.946970000000     0.230200000000     0.0431376  
H567     H      0.637800000000     0.489810000000     0.196630000000     0.0423932  
H568     H      0.897080000000     0.944250000000     0.266050000000     0.0454026  
H569     H      0.885160000000     0.975970000000     0.211800000000     0.0432147  
H570     H      0.847910000000     0.519350000000     0.219390000000     0.03983    
H571     H      0.918040000000     0.965420000000     0.295690000000     0.0480197  
H572     H      0.875240000000     0.501670000000     0.302340000000     0.0328863  
H573     H      0.904730000000     0.512950000000     0.208330000000     0.0433768  
H574     H      0.871980000000     0.534320000000     0.250990000000     0.0429762  
H575     H      0.562890000000     0.880520000000     0.239840000000     0.044951   
H576     H      0.022390000000     0.877940000000     0.192420000000     0.0415498  
H577     H      0.977520000000     0.844350000000     0.206020000000     0.0390631  
H578     H      0.552900000000     0.905040000000     0.272330000000     0.0469258  
H579     H      0.507140000000     0.871860000000     0.285170000000     0.0341744  
H580     H      0.986700000000     0.900930000000     0.195660000000     0.0460735  
H581     H      0.967160000000     0.868620000000     0.238810000000     0.0415792  
H582     H      0.553180000000     0.630730000000     0.248110000000     0.048759   
H583     H      0.512960000000     0.633610000000     0.197730000000     0.0415964  
H584     H      0.973350000000     0.594400000000     0.206410000000     0.0438238  
H585     H      0.540900000000     0.653100000000     0.281760000000     0.0471808  
H586     H      0.994390000000     0.618470000000     0.289550000000     0.0396124  
H587     H      0.976140000000     0.653280000000     0.204510000000     0.0427581  
H588     H      0.958050000000     0.613970000000     0.240040000000     0.0403952  
H589     H      0.889970000000     0.698300000000     0.512200000000     0.0478113  
H590     H      0.894770000000     0.740510000000     0.556620000000     0.0421486  
H591     H      0.922040000000     0.785610000000     0.534550000000     0.0398525  
H592     H      0.857300000000     0.701780000000     0.985080000000     0.0447004  
H593     H      0.881040000000     0.750380000000     0.964420000000     0.038614   
H594     H      0.866840000000     0.772290000000     0.555390000000     0.0405276  
H595     H      0.890390000000     0.791740000000     0.006690000000     0.0415602  
H596     H      0.641900000000     0.792080000000     0.493260000000     0.047258   
H597     H      0.634950000000     0.755300000000     0.543370000000     0.042984   
H598     H      0.608600000000     0.706490000000     0.528450000000     0.0394607  
H599     H      0.672490000000     0.781900000000     0.965710000000     0.0475771  
H600     H      0.644560000000     0.733990000000     0.952350000000     0.0355843  
H601     H      0.662520000000     0.723450000000     0.546750000000     0.042369   
H602     H      0.639460000000     0.698420000000     0.000160000000     0.0418058  
H603     H      0.807230000000     0.845450000000     0.483280000000     0.0448098  
H604     H      0.774200000000     0.859790000000     0.564180000000     0.0449731  
H605     H      0.734660000000     0.901160000000     0.055440000000     0.0400616  
H606     H      0.769140000000     0.860960000000     0.473760000000     0.045447   
H607     H      0.804540000000     0.904220000000     0.983260000000     0.035398   
H608     H      0.736090000000     0.843630000000     0.054820000000     0.0416993  
H609     H      0.724640000000     0.885660000000     0.017700000000     0.0428376  
H610     H      0.766950000000     0.631650000000     0.556040000000     0.0490048  
H611     H      0.802570000000     0.632850000000     0.501170000000     0.0410689  
H612     H      0.781060000000     0.592780000000     0.968470000000     0.0389711  
H613     H      0.730270000000     0.653360000000     0.554240000000     0.0458566  
H614     H      0.707930000000     0.616930000000     0.015650000000     0.0349491  
H615     H      0.783620000000     0.651800000000     0.968880000000     0.041921   
H616     H      0.743650000000     0.612460000000     0.964940000000     0.0402201  
H617     H      0.717410000000     0.456590000000     0.859560000000     0.0457592  
H618     H      0.749020000000     0.538000000000     0.872450000000     0.0453805  
H619     H      0.789060000000     0.030190000000     0.913970000000     0.0398076  
H620     H      0.755930000000     0.448850000000     0.875200000000     0.0459338  
H621     H      0.720260000000     0.957970000000     0.919010000000     0.0330926  
H622     H      0.787010000000     0.028650000000     0.855830000000     0.0416641  
H623     H      0.798920000000     0.992580000000     0.898930000000     0.0408396  
H624     H      0.753260000000     0.542310000000     0.639850000000     0.0480149  
H625     H      0.805890000000     0.509370000000     0.639960000000     0.0411634  
H626     H      0.795150000000     0.959070000000     0.664520000000     0.0390705  
H627     H      0.724500000000     0.534740000000     0.609540000000     0.0482663  
H628     H      0.715230000000     0.982470000000     0.631580000000     0.0334678  
H629     H      0.809600000000     0.979410000000     0.610660000000     0.0424127  
H630     H      0.766220000000     0.949700000000     0.634720000000     0.0408531  
H631     H      0.515920000000     0.702750000000     0.871640000000     0.0479114  
H632     H      0.545960000000     0.758730000000     0.869680000000     0.0451881  
H633     H      0.014940000000     0.794630000000     0.837770000000     0.0404828  
H634     H      0.481870000000     0.700600000000     0.897220000000     0.048298   
H635     H      0.952120000000     0.737440000000     0.864860000000     0.0360071  
H636     H      0.529820000000     0.788420000000     0.894290000000     0.0450494  
H637     H      0.981210000000     0.790400000000     0.863290000000     0.0447065  
H638     H      0.005300000000     0.705640000000     0.612840000000     0.0469651  
H639     H      0.979350000000     0.764380000000     0.611430000000     0.0453847  
H640     H      0.508510000000     0.796000000000     0.648380000000     0.0365778  
H641     H      0.041280000000     0.701060000000     0.590270000000     0.0456822  
H642     H      0.570550000000     0.735970000000     0.625430000000     0.0343323  
H643     H      0.501510000000     0.792470000000     0.589630000000     0.0426859  
H644     H      0.544830000000     0.791050000000     0.626740000000     0.0395089  
H645     H      0.621360000000     0.005370000000     0.788420000000     0.0521786  
H646     H      0.622170000000     0.953240000000     0.756540000000     0.0414343  
H647     H      0.604330000000     0.964500000000     0.703040000000     0.0386706  
H648     H      0.655110000000     0.530720000000     0.785130000000     0.0494087  
H649     H      0.642010000000     0.539230000000     0.728680000000     0.0374307  
H650     H      0.655100000000     0.946970000000     0.730200000000     0.0431484  
H651     H      0.637800000000     0.489810000000     0.696630000000     0.0424214  
H652     H      0.897080000000     0.944250000000     0.766050000000     0.0454176  
H653     H      0.885160000000     0.975970000000     0.711800000000     0.0432422  
H654     H      0.847910000000     0.519350000000     0.719390000000     0.0398476  
H655     H      0.918040000000     0.965420000000     0.795690000000     0.0480718  
H656     H      0.875240000000     0.501670000000     0.802340000000     0.0329396  
H657     H      0.904730000000     0.512950000000     0.708330000000     0.0434122  
H658     H      0.871980000000     0.534320000000     0.750990000000     0.0429882  
H659     H      0.562890000000     0.880520000000     0.739840000000     0.0449659  
H660     H      0.022390000000     0.877940000000     0.692420000000     0.0416178  
H661     H      0.977520000000     0.844350000000     0.706020000000     0.0390874  
H662     H      0.552900000000     0.905040000000     0.772330000000     0.0469536  
H663     H      0.507140000000     0.871860000000     0.785170000000     0.0342095  
H664     H      0.986700000000     0.900930000000     0.695670000000     0.0461556  
H665     H      0.967160000000     0.868620000000     0.738810000000     0.0415828  
H666     H      0.553180000000     0.630730000000     0.748110000000     0.048764   
H667     H      0.512960000000     0.633610000000     0.697730000000     0.0416338  
H668     H      0.973350000000     0.594400000000     0.706410000000     0.0438679  
H669     H      0.540900000000     0.653100000000     0.781760000000     0.0471855  
H670     H      0.994390000000     0.618470000000     0.789550000000     0.0396565  
H671     H      0.976140000000     0.653280000000     0.704510000000     0.0427827  
H672     H      0.958050000000     0.613970000000     0.740040000000     0.0404108  
N1       N      0.418950000000     0.252490000000     0.496850000000    -0.169361   
N2       N      0.359820000000     0.236350000000     0.521250000000    -0.164997   
N3       N      0.109510000000     0.235880000000     0.987670000000    -0.16801    
N4       N      0.169900000000     0.254250000000     0.007660000000    -0.164937   
N5       N      0.270000000000     0.406870000000     0.519850000000    -0.171277   
N6       N      0.271320000000     0.340560000000     0.518590000000    -0.164798   
N7       N      0.250450000000     0.091310000000     0.008890000000    -0.170628   
N8       N      0.259790000000     0.155200000000     0.013410000000    -0.166083   
N9       N      0.253690000000     0.495050000000     0.420700000000    -0.171307   
N10      N      0.252000000000     0.492690000000     0.353730000000    -0.164698   
N11      N      0.251150000000     0.984720000000     0.166140000000    -0.171487   
N12      N      0.267650000000     0.007930000000     0.107730000000    -0.163159   
N13      N      0.490360000000     0.250920000000     0.335590000000    -0.168583   
N14      N      0.508410000000     0.243090000000     0.398450000000    -0.163036   
N15      N      0.030630000000     0.251170000000     0.151510000000    -0.169085   
N16      N      0.018460000000     0.245350000000     0.087220000000    -0.163848   
N17      N      0.103310000000     0.008000000000     0.227730000000    -0.168421   
N18      N      0.157600000000     0.988020000000     0.258940000000    -0.165558   
N19      N      0.348790000000     0.492020000000     0.261530000000    -0.168625   
N20      N      0.414660000000     0.487010000000     0.250440000000    -0.164473   
N21      N      0.509490000000     0.342750000000     0.245450000000    -0.168164   
N22      N      0.520600000000     0.405780000000     0.233130000000    -0.164395   
N23      N      0.001660000000     0.091320000000     0.248630000000    -0.167287   
N24      N      0.010830000000     0.155980000000     0.241490000000    -0.165236   
N25      N      0.418950000000     0.252490000000     0.996850000000    -0.168173   
N26      N      0.359820000000     0.236350000000     0.021250000000    -0.165974   
N27      N      0.109510000000     0.235880000000     0.487670000000    -0.169067   
N28      N      0.169900000000     0.254250000000     0.507650000000    -0.164186   
N29      N      0.270000000000     0.406870000000     0.019850000000    -0.170935   
N30      N      0.271320000000     0.340560000000     0.018590000000    -0.165666   
N31      N      0.250450000000     0.091310000000     0.508890000000    -0.169815   
N32      N      0.259790000000     0.155200000000     0.513410000000    -0.165198   
N33      N      0.253690000000     0.495050000000     0.920700000000    -0.171074   
N34      N      0.252000000000     0.492690000000     0.853730000000    -0.164703   
N35      N      0.251150000000     0.984720000000     0.666140000000    -0.171489   
N36      N      0.267650000000     0.007930000000     0.607730000000    -0.163169   
N37      N      0.490360000000     0.250920000000     0.835590000000    -0.168581   
N38      N      0.508410000000     0.243090000000     0.898450000000    -0.163039   
N39      N      0.030630000000     0.251170000000     0.651510000000    -0.169079   
N40      N      0.018460000000     0.245350000000     0.587220000000    -0.163704   
N41      N      0.103310000000     0.008000000000     0.727730000000    -0.168408   
N42      N      0.157600000000     0.988020000000     0.758940000000    -0.165558   
N43      N      0.348790000000     0.492020000000     0.761530000000    -0.168618   
N44      N      0.414660000000     0.487010000000     0.750440000000    -0.164469   
N45      N      0.509490000000     0.342750000000     0.745450000000    -0.168163   
N46      N      0.520600000000     0.405780000000     0.733130000000    -0.164381   
N47      N      0.001660000000     0.091320000000     0.748630000000    -0.167278   
N48      N      0.010830000000     0.155980000000     0.741490000000    -0.165257   
N49      N      0.418950000000     0.752490000000     0.496850000000    -0.169381   
N50      N      0.359820000000     0.736360000000     0.521250000000    -0.164998   
N51      N      0.109510000000     0.735880000000     0.987670000000    -0.168072   
N52      N      0.169900000000     0.754250000000     0.007660000000    -0.164936   
N53      N      0.270000000000     0.906870000000     0.519850000000    -0.171365   
N54      N      0.271320000000     0.840560000000     0.518590000000    -0.164791   
N55      N      0.250450000000     0.591310000000     0.008890000000    -0.170721   
N56      N      0.259790000000     0.655200000000     0.013410000000    -0.166085   
N57      N      0.253690000000     0.995050000000     0.420700000000    -0.172301   
N58      N      0.252000000000     0.992690000000     0.353730000000    -0.165582   
N59      N      0.251150000000     0.484720000000     0.166140000000    -0.170058   
N60      N      0.267650000000     0.507930000000     0.107730000000    -0.165182   
N61      N      0.490360000000     0.750920000000     0.335590000000    -0.168591   
N62      N      0.508410000000     0.743090000000     0.398450000000    -0.163026   
N63      N      0.030630000000     0.751170000000     0.151510000000    -0.169087   
N64      N      0.018460000000     0.745350000000     0.087220000000    -0.163858   
N65      N      0.103310000000     0.508000000000     0.227730000000    -0.16986    
N66      N      0.157600000000     0.488020000000     0.258940000000    -0.164542   
N67      N      0.348790000000     0.992020000000     0.261530000000    -0.16957    
N68      N      0.414660000000     0.987010000000     0.250440000000    -0.164142   
N69      N      0.509490000000     0.842750000000     0.245450000000    -0.168173   
N70      N      0.520600000000     0.905780000000     0.233130000000    -0.164563   
N71      N      0.001660000000     0.591320000000     0.248630000000    -0.167397   
N72      N      0.010830000000     0.655980000000     0.241490000000    -0.165236   
N73      N      0.418950000000     0.752490000000     0.996850000000    -0.168193   
N74      N      0.359820000000     0.736360000000     0.021250000000    -0.165975   
N75      N      0.109510000000     0.735880000000     0.487670000000    -0.16913    
N76      N      0.169900000000     0.754250000000     0.507650000000    -0.164185   
N77      N      0.270000000000     0.906870000000     0.019850000000    -0.171023   
N78      N      0.271320000000     0.840560000000     0.018590000000    -0.165657   
N79      N      0.250450000000     0.591310000000     0.508890000000    -0.169907   
N80      N      0.259790000000     0.655200000000     0.513410000000    -0.165198   
N81      N      0.253690000000     0.995050000000     0.920700000000    -0.172069   
N82      N      0.252000000000     0.992690000000     0.853730000000    -0.165586   
N83      N      0.251150000000     0.484720000000     0.666140000000    -0.170058   
N84      N      0.267650000000     0.507930000000     0.607730000000    -0.165196   
N85      N      0.490360000000     0.750920000000     0.835590000000    -0.168588   
N86      N      0.508410000000     0.743090000000     0.898450000000    -0.163029   
N87      N      0.030630000000     0.751170000000     0.651510000000    -0.169082   
N88      N      0.018460000000     0.745350000000     0.587220000000    -0.163714   
N89      N      0.103310000000     0.508000000000     0.727730000000    -0.169847   
N90      N      0.157600000000     0.488020000000     0.758940000000    -0.164542   
N91      N      0.348790000000     0.992020000000     0.761530000000    -0.169564   
N92      N      0.414660000000     0.987010000000     0.750440000000    -0.164137   
N93      N      0.509490000000     0.842750000000     0.745450000000    -0.168171   
N94      N      0.520600000000     0.905780000000     0.733130000000    -0.164549   
N95      N      0.001660000000     0.591320000000     0.748630000000    -0.167388   
N96      N      0.010830000000     0.655980000000     0.741490000000    -0.165257   
N97      N      0.918950000000     0.252490000000     0.496850000000    -0.169083   
N98      N      0.859810000000     0.236350000000     0.521250000000    -0.165039   
N99      N      0.609510000000     0.235880000000     0.987670000000    -0.168032   
N100     N      0.669910000000     0.254250000000     0.007660000000    -0.165014   
N101     N      0.770000000000     0.406870000000     0.519850000000    -0.17125    
N102     N      0.771320000000     0.340560000000     0.518590000000    -0.164799   
N103     N      0.750450000000     0.091310000000     0.008890000000    -0.17061    
N104     N      0.759790000000     0.155200000000     0.013410000000    -0.166076   
N105     N      0.753690000000     0.495050000000     0.420700000000    -0.171285   
N106     N      0.752000000000     0.492690000000     0.353730000000    -0.164696   
N107     N      0.751150000000     0.984720000000     0.166140000000    -0.171482   
N108     N      0.767650000000     0.007930000000     0.107730000000    -0.163142   
N109     N      0.990360000000     0.250920000000     0.335590000000    -0.166648   
N110     N      0.008410000000     0.243090000000     0.398450000000    -0.165519   
N111     N      0.530630000000     0.251170000000     0.151510000000    -0.169302   
N112     N      0.518460000000     0.245350000000     0.087220000000    -0.164147   
N113     N      0.603310000000     0.008000000000     0.227730000000    -0.168436   
N114     N      0.657600000000     0.988020000000     0.258940000000    -0.165557   
N115     N      0.848790000000     0.492020000000     0.261530000000    -0.168604   
N116     N      0.914660000000     0.487010000000     0.250440000000    -0.16421    
N117     N      0.009490000000     0.342750000000     0.245450000000    -0.169694   
N118     N      0.020600000000     0.405780000000     0.233130000000    -0.163648   
N119     N      0.501660000000     0.091320000000     0.248630000000    -0.166284   
N120     N      0.510820000000     0.155980000000     0.241490000000    -0.1635     
N121     N      0.918950000000     0.252490000000     0.996850000000    -0.167891   
N122     N      0.859810000000     0.236350000000     0.021250000000    -0.166019   
N123     N      0.609510000000     0.235880000000     0.487670000000    -0.169094   
N124     N      0.669910000000     0.254250000000     0.507650000000    -0.164259   
N125     N      0.770000000000     0.406870000000     0.019850000000    -0.170907   
N126     N      0.771320000000     0.340560000000     0.018590000000    -0.16567    
N127     N      0.750450000000     0.091310000000     0.508890000000    -0.169794   
N128     N      0.759790000000     0.155200000000     0.513410000000    -0.165187   
N129     N      0.753690000000     0.495050000000     0.920700000000    -0.171052   
N130     N      0.752000000000     0.492690000000     0.853730000000    -0.164701   
N131     N      0.751150000000     0.984720000000     0.666140000000    -0.171484   
N132     N      0.767650000000     0.007930000000     0.607730000000    -0.163152   
N133     N      0.990360000000     0.250920000000     0.835590000000    -0.166643   
N134     N      0.008410000000     0.243090000000     0.898450000000    -0.165525   
N135     N      0.530630000000     0.251170000000     0.651510000000    -0.169296   
N136     N      0.518460000000     0.245350000000     0.587220000000    -0.164003   
N137     N      0.603310000000     0.008000000000     0.727730000000    -0.168423   
N138     N      0.657600000000     0.988020000000     0.758940000000    -0.165557   
N139     N      0.848790000000     0.492020000000     0.761530000000    -0.168597   
N140     N      0.914660000000     0.487010000000     0.750440000000    -0.164205   
N141     N      0.009490000000     0.342750000000     0.745450000000    -0.169697   
N142     N      0.020600000000     0.405780000000     0.733130000000    -0.16363    
N143     N      0.501660000000     0.091320000000     0.748630000000    -0.166272   
N144     N      0.510820000000     0.155980000000     0.741490000000    -0.163516   
N145     N      0.918950000000     0.752490000000     0.496850000000    -0.169102   
N146     N      0.859810000000     0.736360000000     0.521250000000    -0.16504    
N147     N      0.609510000000     0.735880000000     0.987670000000    -0.168093   
N148     N      0.669910000000     0.754250000000     0.007660000000    -0.165014   
N149     N      0.770000000000     0.906870000000     0.519850000000    -0.171338   
N150     N      0.771320000000     0.840560000000     0.518590000000    -0.164792   
N151     N      0.750450000000     0.591310000000     0.008890000000    -0.170704   
N152     N      0.759790000000     0.655200000000     0.013410000000    -0.166078   
N153     N      0.753690000000     0.995050000000     0.420700000000    -0.172278   
N154     N      0.752000000000     0.992690000000     0.353730000000    -0.165578   
N155     N      0.751150000000     0.484720000000     0.166140000000    -0.170056   
N156     N      0.767650000000     0.507930000000     0.107730000000    -0.165161   
N157     N      0.990360000000     0.750920000000     0.335590000000    -0.166653   
N158     N      0.008410000000     0.743090000000     0.398450000000    -0.165512   
N159     N      0.530630000000     0.751170000000     0.151510000000    -0.169304   
N160     N      0.518460000000     0.745350000000     0.087220000000    -0.164156   
N161     N      0.603310000000     0.508000000000     0.227730000000    -0.169873   
N162     N      0.657600000000     0.488020000000     0.258940000000    -0.16454    
N163     N      0.848790000000     0.992020000000     0.261530000000    -0.169547   
N164     N      0.914660000000     0.987010000000     0.250440000000    -0.163881   
N165     N      0.009490000000     0.842750000000     0.245450000000    -0.169702   
N166     N      0.020600000000     0.905780000000     0.233130000000    -0.163816   
N167     N      0.501660000000     0.591320000000     0.248630000000    -0.166391   
N168     N      0.510820000000     0.655980000000     0.241490000000    -0.163495   
N169     N      0.918950000000     0.752490000000     0.996850000000    -0.16791    
N170     N      0.859810000000     0.736360000000     0.021250000000    -0.16602    
N171     N      0.609510000000     0.735880000000     0.487670000000    -0.169157   
N172     N      0.669910000000     0.754250000000     0.507650000000    -0.164259   
N173     N      0.770000000000     0.906870000000     0.019850000000    -0.170995   
N174     N      0.771320000000     0.840560000000     0.018590000000    -0.165661   
N175     N      0.750450000000     0.591310000000     0.508890000000    -0.169886   
N176     N      0.759790000000     0.655200000000     0.513410000000    -0.165187   
N177     N      0.753690000000     0.995050000000     0.920700000000    -0.172044   
N178     N      0.752000000000     0.992690000000     0.853730000000    -0.165583   
N179     N      0.751150000000     0.484720000000     0.666140000000    -0.170055   
N180     N      0.767650000000     0.507930000000     0.607730000000    -0.165174   
N181     N      0.990360000000     0.750920000000     0.835590000000    -0.166649   
N182     N      0.008410000000     0.743090000000     0.898450000000    -0.165518   
N183     N      0.530630000000     0.751170000000     0.651510000000    -0.169299   
N184     N      0.518460000000     0.745350000000     0.587220000000    -0.164013   
N185     N      0.603310000000     0.508000000000     0.727730000000    -0.16986    
N186     N      0.657600000000     0.488020000000     0.758940000000    -0.164541   
N187     N      0.848790000000     0.992020000000     0.761530000000    -0.16954    
N188     N      0.914660000000     0.987010000000     0.750440000000    -0.163876   
N189     N      0.009490000000     0.842750000000     0.745450000000    -0.169705   
N190     N      0.020600000000     0.905780000000     0.733130000000    -0.163798   
N191     N      0.501660000000     0.591320000000     0.748630000000    -0.166378   
N192     N      0.510820000000     0.655980000000     0.741490000000    -0.163511   
O1       O      0.006180000000     0.042700000000     0.270330000000    -0.391168   
O2       O      0.020890000000     0.450510000000     0.261790000000    -0.398423   
O3       O      0.060030000000     0.504650000000     0.260030000000    -0.394611   
O4       O      0.465260000000     0.988430000000     0.271290000000    -0.392725   
O5       O      0.458180000000     0.997350000000     0.220340000000    -0.404349   
O6       O      0.053270000000     0.502000000000     0.208170000000    -0.3965     
O7       O      0.507690000000     0.452770000000     0.211240000000    -0.392826   
O8       O      0.502780000000     0.047000000000     0.218470000000    -0.390937   
O9       O      0.485370000000     0.202330000000     0.233770000000    -0.392691   
O10      O      0.483750000000     0.296270000000     0.240010000000    -0.394559   
O11      O      0.494730000000     0.253080000000     0.191420000000    -0.39593    
O12      O      0.474380000000     0.245830000000     0.284350000000    -0.388427   
O13      O      0.025930000000     0.252150000000     0.295400000000    -0.399896   
O14      O      0.046260000000     0.246850000000     0.202710000000    -0.391589   
O15      O      0.036220000000     0.296340000000     0.247910000000    -0.390645   
O16      O      0.035240000000     0.202360000000     0.251690000000    -0.393185   
O17      O      0.301900000000     0.464880000000     0.265830000000    -0.389529   
O18      O      0.205490000000     0.462500000000     0.256240000000    -0.393177   
O19      O      0.258440000000     0.461670000000     0.213720000000    -0.396058   
O20      O      0.248850000000     0.465190000000     0.308090000000    -0.39635    
O21      O      0.256160000000     0.016340000000     0.306080000000    -0.397322   
O22      O      0.248740000000     0.012450000000     0.211760000000    -0.394541   
O23      O      0.204850000000     0.013750000000     0.262600000000    -0.398293   
O24      O      0.300510000000     0.015490000000     0.255510000000    -0.398427   
O25      O      0.229030000000     0.042960000000     0.012340000000    -0.396797   
O26      O      0.239630000000     0.450670000000     0.022110000000    -0.40231    
O27      O      0.237870000000     0.503000000000     0.063400000000    -0.399991   
O28      O      0.231140000000     0.991250000000     0.469510000000    -0.395379   
O29      O      0.283150000000     0.000910000000     0.465100000000    -0.40014    
O30      O      0.290860000000     0.502740000000     0.059500000000    -0.396422   
O31      O      0.291660000000     0.455010000000     0.512550000000    -0.396965   
O32      O      0.281920000000     0.048320000000     0.510130000000    -0.398105   
O33      O      0.015210000000     0.218930000000     0.040800000000    -0.398128   
O34      O      0.008700000000     0.217820000000     0.445790000000    -0.394458   
O35      O      0.060040000000     0.214350000000     0.491510000000    -0.395815   
O36      O      0.464020000000     0.222650000000     0.995290000000    -0.394355   
O37      O      0.468550000000     0.274150000000     0.996130000000    -0.395883   
O38      O      0.064500000000     0.265820000000     0.488710000000    -0.392922   
O39      O      0.513740000000     0.269220000000     0.444950000000    -0.394759   
O40      O      0.518960000000     0.270460000000     0.039930000000    -0.397892   
O41      O      0.260740000000     0.200780000000     0.040180000000    -0.401358   
O42      O      0.264150000000     0.293890000000     0.042460000000    -0.401067   
O43      O      0.214850000000     0.248330000000     0.037390000000    -0.395365   
O44      O      0.311550000000     0.245890000000     0.044520000000    -0.39187    
O45      O      0.314650000000     0.241540000000     0.492480000000    -0.401693   
O46      O      0.219670000000     0.254790000000     0.485740000000    -0.396818   
O47      O      0.273770000000     0.295050000000     0.491050000000    -0.396749   
O48      O      0.262450000000     0.201750000000     0.487890000000    -0.397209   
O49      O      0.006180000000     0.042700000000     0.770330000000    -0.391147   
O50      O      0.020890000000     0.450510000000     0.761790000000    -0.398402   
O51      O      0.060030000000     0.504650000000     0.760030000000    -0.394598   
O52      O      0.465260000000     0.988430000000     0.771290000000    -0.392773   
O53      O      0.458180000000     0.997350000000     0.720340000000    -0.404223   
O54      O      0.053270000000     0.502000000000     0.708170000000    -0.396455   
O55      O      0.507690000000     0.452770000000     0.711240000000    -0.392787   
O56      O      0.502780000000     0.047000000000     0.718470000000    -0.390909   
O57      O      0.485370000000     0.202330000000     0.733770000000    -0.392708   
O58      O      0.483750000000     0.296270000000     0.740010000000    -0.394537   
O59      O      0.494730000000     0.253080000000     0.691420000000    -0.395913   
O60      O      0.474380000000     0.245830000000     0.784350000000    -0.388432   
O61      O      0.025930000000     0.252150000000     0.795400000000    -0.399912   
O62      O      0.046260000000     0.246850000000     0.702710000000    -0.391574   
O63      O      0.036220000000     0.296340000000     0.747910000000    -0.390653   
O64      O      0.035240000000     0.202360000000     0.751680000000    -0.39324    
O65      O      0.301900000000     0.464880000000     0.765830000000    -0.389541   
O66      O      0.205490000000     0.462500000000     0.756240000000    -0.393191   
O67      O      0.258440000000     0.461670000000     0.713720000000    -0.396054   
O68      O      0.248850000000     0.465190000000     0.808090000000    -0.396338   
O69      O      0.256160000000     0.016340000000     0.806080000000    -0.397324   
O70      O      0.248740000000     0.012450000000     0.711760000000    -0.394537   
O71      O      0.204850000000     0.013750000000     0.762590000000    -0.398304   
O72      O      0.300510000000     0.015490000000     0.755510000000    -0.398399   
O73      O      0.229030000000     0.042960000000     0.512340000000    -0.396538   
O74      O      0.239630000000     0.450670000000     0.522110000000    -0.402216   
O75      O      0.237870000000     0.503000000000     0.563400000000    -0.400244   
O76      O      0.231140000000     0.991250000000     0.969510000000    -0.393933   
O77      O      0.283150000000     0.000910000000     0.965100000000    -0.398708   
O78      O      0.290860000000     0.502740000000     0.559500000000    -0.396656   
O79      O      0.291660000000     0.455010000000     0.012550000000    -0.39723    
O80      O      0.281920000000     0.048320000000     0.010130000000    -0.398468   
O81      O      0.015210000000     0.218930000000     0.540800000000    -0.396663   
O82      O      0.008700000000     0.217820000000     0.945790000000    -0.39468    
O83      O      0.060040000000     0.214350000000     0.991510000000    -0.395332   
O84      O      0.464020000000     0.222650000000     0.495290000000    -0.39469    
O85      O      0.468550000000     0.274150000000     0.496130000000    -0.396381   
O86      O      0.064500000000     0.265820000000     0.988710000000    -0.392681   
O87      O      0.513740000000     0.269220000000     0.944950000000    -0.394987   
O88      O      0.518960000000     0.270460000000     0.539930000000    -0.396398   
O89      O      0.260740000000     0.200780000000     0.540180000000    -0.401928   
O90      O      0.264150000000     0.293890000000     0.542460000000    -0.401632   
O91      O      0.214850000000     0.248330000000     0.537390000000    -0.395918   
O92      O      0.311550000000     0.245890000000     0.544520000000    -0.392319   
O93      O      0.314650000000     0.241540000000     0.992480000000    -0.399784   
O94      O      0.219670000000     0.254790000000     0.985740000000    -0.394948   
O95      O      0.273770000000     0.295050000000     0.991050000000    -0.394902   
O96      O      0.262450000000     0.201750000000     0.987890000000    -0.395353   
O97      O      0.006180000000     0.542700000000     0.270330000000    -0.393223   
O98      O      0.020890000000     0.950510000000     0.261790000000    -0.398094   
O99      O      0.060030000000     0.004650000000     0.260030000000    -0.392375   
O100     O      0.465260000000     0.488430000000     0.271290000000    -0.392844   
O101     O      0.458180000000     0.497350000000     0.220340000000    -0.40184    
O102     O      0.053270000000     0.002000000000     0.208170000000    -0.396232   
O103     O      0.507690000000     0.952760000000     0.211240000000    -0.394689   
O104     O      0.502780000000     0.547000000000     0.218470000000    -0.390652   
O105     O      0.485370000000     0.702330000000     0.233770000000    -0.392689   
O106     O      0.483750000000     0.796270000000     0.240010000000    -0.394601   
O107     O      0.494730000000     0.753080000000     0.191420000000    -0.395935   
O108     O      0.474380000000     0.745830000000     0.284350000000    -0.388426   
O109     O      0.025930000000     0.752140000000     0.295400000000    -0.399928   
O110     O      0.046260000000     0.746850000000     0.202710000000    -0.391577   
O111     O      0.036220000000     0.796350000000     0.247910000000    -0.390631   
O112     O      0.035240000000     0.702360000000     0.251690000000    -0.393148   
O113     O      0.301900000000     0.964880000000     0.265830000000    -0.388728   
O114     O      0.205490000000     0.962500000000     0.256240000000    -0.392479   
O115     O      0.258440000000     0.961670000000     0.213720000000    -0.395349   
O116     O      0.248850000000     0.965190000000     0.308090000000    -0.395614   
O117     O      0.256160000000     0.516340000000     0.306080000000    -0.399792   
O118     O      0.248740000000     0.512450000000     0.211760000000    -0.396888   
O119     O      0.204850000000     0.513750000000     0.262600000000    -0.400722   
O120     O      0.300510000000     0.515490000000     0.255510000000    -0.400858   
O121     O      0.229030000000     0.542960000000     0.012340000000    -0.398722   
O122     O      0.239630000000     0.950670000000     0.022110000000    -0.401918   
O123     O      0.237870000000     0.003000000000     0.063400000000    -0.397514   
O124     O      0.231140000000     0.491250000000     0.469510000000    -0.396026   
O125     O      0.283150000000     0.500910000000     0.465100000000    -0.402768   
O126     O      0.290860000000     0.002740000000     0.059500000000    -0.395743   
O127     O      0.291660000000     0.955010000000     0.512550000000    -0.398856   
O128     O      0.281920000000     0.548320000000     0.510130000000    -0.397838   
O129     O      0.015210000000     0.718930000000     0.040800000000    -0.398165   
O130     O      0.008700000000     0.717820000000     0.445790000000    -0.394499   
O131     O      0.060040000000     0.714360000000     0.491510000000    -0.396018   
O132     O      0.464020000000     0.722650000000     0.995290000000    -0.394389   
O133     O      0.468550000000     0.774150000000     0.996130000000    -0.395932   
O134     O      0.064500000000     0.765820000000     0.488710000000    -0.393005   
O135     O      0.513740000000     0.769220000000     0.444950000000    -0.39479    
O136     O      0.518960000000     0.770460000000     0.039930000000    -0.397929   
O137     O      0.260740000000     0.700780000000     0.040180000000    -0.401351   
O138     O      0.264150000000     0.793890000000     0.042460000000    -0.401076   
O139     O      0.214850000000     0.748330000000     0.037390000000    -0.395385   
O140     O      0.311550000000     0.745880000000     0.044520000000    -0.391896   
O141     O      0.314650000000     0.741540000000     0.492480000000    -0.401708   
O142     O      0.219670000000     0.754790000000     0.485740000000    -0.396815   
O143     O      0.273770000000     0.795050000000     0.491050000000    -0.396754   
O144     O      0.262450000000     0.701750000000     0.487890000000    -0.397215   
O145     O      0.006180000000     0.542700000000     0.770330000000    -0.393202   
O146     O      0.020890000000     0.950510000000     0.761790000000    -0.398073   
O147     O      0.060030000000     0.004650000000     0.760030000000    -0.392363   
O148     O      0.465260000000     0.488430000000     0.771290000000    -0.392893   
O149     O      0.458180000000     0.497350000000     0.720340000000    -0.401712   
O150     O      0.053270000000     0.002000000000     0.708170000000    -0.396187   
O151     O      0.507690000000     0.952760000000     0.711240000000    -0.394652   
O152     O      0.502780000000     0.547000000000     0.718470000000    -0.390624   
O153     O      0.485370000000     0.702330000000     0.733770000000    -0.392706   
O154     O      0.483750000000     0.796270000000     0.740010000000    -0.394579   
O155     O      0.494730000000     0.753080000000     0.691420000000    -0.395918   
O156     O      0.474380000000     0.745830000000     0.784350000000    -0.388432   
O157     O      0.025930000000     0.752140000000     0.795400000000    -0.399944   
O158     O      0.046260000000     0.746850000000     0.702710000000    -0.391562   
O159     O      0.036220000000     0.796350000000     0.747910000000    -0.390639   
O160     O      0.035240000000     0.702360000000     0.751680000000    -0.393202   
O161     O      0.301900000000     0.964880000000     0.765830000000    -0.388739   
O162     O      0.205490000000     0.962500000000     0.756240000000    -0.392493   
O163     O      0.258440000000     0.961670000000     0.713720000000    -0.395345   
O164     O      0.248850000000     0.965190000000     0.808090000000    -0.395603   
O165     O      0.256160000000     0.516340000000     0.806080000000    -0.399792   
O166     O      0.248740000000     0.512450000000     0.711760000000    -0.396885   
O167     O      0.204850000000     0.513750000000     0.762590000000    -0.400734   
O168     O      0.300510000000     0.515490000000     0.755510000000    -0.400829   
O169     O      0.229030000000     0.542960000000     0.512340000000    -0.398469   
O170     O      0.239630000000     0.950670000000     0.522110000000    -0.401823   
O171     O      0.237870000000     0.003000000000     0.563400000000    -0.39776    
O172     O      0.231140000000     0.491250000000     0.969510000000    -0.394573   
O173     O      0.283150000000     0.500910000000     0.965100000000    -0.401325   
O174     O      0.290860000000     0.002740000000     0.559500000000    -0.395976   
O175     O      0.291660000000     0.955010000000     0.012550000000    -0.399115   
O176     O      0.281920000000     0.548320000000     0.010130000000    -0.398202   
O177     O      0.015210000000     0.718930000000     0.540800000000    -0.396699   
O178     O      0.008700000000     0.717820000000     0.945790000000    -0.394721   
O179     O      0.060040000000     0.714360000000     0.991510000000    -0.395534   
O180     O      0.464020000000     0.722650000000     0.495290000000    -0.394724   
O181     O      0.468550000000     0.774150000000     0.496130000000    -0.39643    
O182     O      0.064500000000     0.765820000000     0.988710000000    -0.392764   
O183     O      0.513740000000     0.769220000000     0.944950000000    -0.395018   
O184     O      0.518960000000     0.770460000000     0.539930000000    -0.396436   
O185     O      0.260740000000     0.700780000000     0.540180000000    -0.401922   
O186     O      0.264150000000     0.793890000000     0.542460000000    -0.401641   
O187     O      0.214850000000     0.748330000000     0.537390000000    -0.395937   
O188     O      0.311550000000     0.745880000000     0.544520000000    -0.392345   
O189     O      0.314650000000     0.741540000000     0.992480000000    -0.399798   
O190     O      0.219670000000     0.754790000000     0.985740000000    -0.394946   
O191     O      0.273770000000     0.795050000000     0.991050000000    -0.394909   
O192     O      0.262450000000     0.701750000000     0.987890000000    -0.395357   
O193     O      0.506180000000     0.042700000000     0.270330000000    -0.390751   
O194     O      0.520890000000     0.450510000000     0.261790000000    -0.398326   
O195     O      0.560030000000     0.504650000000     0.260030000000    -0.395134   
O196     O      0.965260000000     0.988430000000     0.271290000000    -0.390182   
O197     O      0.958190000000     0.997350000000     0.220340000000    -0.401881   
O198     O      0.553270000000     0.502000000000     0.208170000000    -0.396882   
O199     O      0.007700000000     0.452770000000     0.211240000000    -0.393447   
O200     O      0.002780000000     0.047000000000     0.218470000000    -0.391624   
O201     O      0.985370000000     0.202330000000     0.233770000000    -0.389664   
O202     O      0.983750000000     0.296270000000     0.240010000000    -0.391535   
O203     O      0.994730000000     0.253080000000     0.191420000000    -0.392425   
O204     O      0.974380000000     0.245830000000     0.284350000000    -0.389034   
O205     O      0.525930000000     0.252150000000     0.295400000000    -0.397207   
O206     O      0.546260000000     0.246850000000     0.202710000000    -0.392547   
O207     O      0.536220000000     0.296340000000     0.247910000000    -0.391569   
O208     O      0.535240000000     0.202360000000     0.251690000000    -0.393961   
O209     O      0.801900000000     0.464880000000     0.265830000000    -0.389511   
O210     O      0.705490000000     0.462500000000     0.256240000000    -0.39318    
O211     O      0.758440000000     0.461670000000     0.213720000000    -0.396047   
O212     O      0.748850000000     0.465190000000     0.308090000000    -0.396344   
O213     O      0.756160000000     0.016340000000     0.306080000000    -0.397317   
O214     O      0.748740000000     0.012450000000     0.211760000000    -0.394543   
O215     O      0.704850000000     0.013750000000     0.262600000000    -0.398301   
O216     O      0.800510000000     0.015490000000     0.255510000000    -0.398405   
O217     O      0.729030000000     0.042960000000     0.012340000000    -0.396767   
O218     O      0.739630000000     0.450670000000     0.022110000000    -0.402284   
O219     O      0.737870000000     0.503000000000     0.063400000000    -0.399968   
O220     O      0.731140000000     0.991250000000     0.469510000000    -0.395348   
O221     O      0.783150000000     0.000910000000     0.465100000000    -0.40008    
O222     O      0.790860000000     0.502740000000     0.059500000000    -0.396331   
O223     O      0.791660000000     0.455010000000     0.512550000000    -0.396889   
O224     O      0.781920000000     0.048320000000     0.510130000000    -0.398031   
O225     O      0.515210000000     0.218930000000     0.040800000000    -0.397873   
O226     O      0.508700000000     0.217820000000     0.445790000000    -0.393607   
O227     O      0.560040000000     0.214350000000     0.491510000000    -0.396194   
O228     O      0.964020000000     0.222650000000     0.995290000000    -0.391825   
O229     O      0.968550000000     0.274150000000     0.996130000000    -0.39324    
O230     O      0.564500000000     0.265820000000     0.488710000000    -0.393351   
O231     O      0.013740000000     0.269220000000     0.444950000000    -0.395197   
O232     O      0.018960000000     0.270460000000     0.039930000000    -0.398065   
O233     O      0.760740000000     0.200780000000     0.040180000000    -0.40134    
O234     O      0.764150000000     0.293890000000     0.042460000000    -0.401056   
O235     O      0.714850000000     0.248330000000     0.037390000000    -0.3954     
O236     O      0.811550000000     0.245890000000     0.044520000000    -0.391846   
O237     O      0.814650000000     0.241540000000     0.492480000000    -0.401704   
O238     O      0.719670000000     0.254790000000     0.485740000000    -0.396852   
O239     O      0.773770000000     0.295050000000     0.491050000000    -0.396736   
O240     O      0.762450000000     0.201750000000     0.487890000000    -0.397206   
O241     O      0.506180000000     0.042700000000     0.770330000000    -0.39073    
O242     O      0.520890000000     0.450510000000     0.761790000000    -0.398305   
O243     O      0.560030000000     0.504650000000     0.760030000000    -0.395122   
O244     O      0.965260000000     0.988430000000     0.771290000000    -0.390225   
O245     O      0.958190000000     0.997350000000     0.720340000000    -0.401747   
O246     O      0.553270000000     0.502000000000     0.708170000000    -0.396837   
O247     O      0.007700000000     0.452770000000     0.711240000000    -0.393411   
O248     O      0.002780000000     0.047000000000     0.718470000000    -0.391598   
O249     O      0.985370000000     0.202330000000     0.733770000000    -0.389673   
O250     O      0.983750000000     0.296270000000     0.740010000000    -0.391505   
O251     O      0.994730000000     0.253080000000     0.691420000000    -0.392396   
O252     O      0.974380000000     0.245830000000     0.784350000000    -0.38904    
O253     O      0.525930000000     0.252150000000     0.795400000000    -0.397217   
O254     O      0.546260000000     0.246850000000     0.702710000000    -0.392534   
O255     O      0.536220000000     0.296340000000     0.747910000000    -0.391579   
O256     O      0.535240000000     0.202360000000     0.751680000000    -0.394018   
O257     O      0.801900000000     0.464880000000     0.765830000000    -0.389522   
O258     O      0.705490000000     0.462500000000     0.756240000000    -0.393194   
O259     O      0.758440000000     0.461670000000     0.713720000000    -0.396044   
O260     O      0.748850000000     0.465190000000     0.808090000000    -0.396332   
O261     O      0.756160000000     0.016340000000     0.806080000000    -0.397318   
O262     O      0.748740000000     0.012450000000     0.711760000000    -0.394539   
O263     O      0.704850000000     0.013750000000     0.762590000000    -0.398313   
O264     O      0.800510000000     0.015490000000     0.755510000000    -0.398377   
O265     O      0.729030000000     0.042960000000     0.512340000000    -0.396506   
O266     O      0.739630000000     0.450670000000     0.522110000000    -0.402189   
O267     O      0.737870000000     0.503000000000     0.563400000000    -0.400223   
O268     O      0.731140000000     0.991250000000     0.969510000000    -0.393894   
O269     O      0.783150000000     0.000910000000     0.965100000000    -0.398641   
O270     O      0.790860000000     0.502740000000     0.559500000000    -0.396565   
O271     O      0.791660000000     0.455010000000     0.012550000000    -0.397156   
O272     O      0.781920000000     0.048320000000     0.010130000000    -0.398396   
O273     O      0.515210000000     0.218930000000     0.540800000000    -0.396395   
O274     O      0.508700000000     0.217820000000     0.945790000000    -0.39383    
O275     O      0.560040000000     0.214350000000     0.991510000000    -0.395708   
O276     O      0.964020000000     0.222650000000     0.495290000000    -0.39216    
O277     O      0.968550000000     0.274150000000     0.496130000000    -0.393739   
O278     O      0.564500000000     0.265820000000     0.988710000000    -0.393109   
O279     O      0.013740000000     0.269220000000     0.944950000000    -0.395423   
O280     O      0.018960000000     0.270460000000     0.539930000000    -0.396584   
O281     O      0.760740000000     0.200780000000     0.540180000000    -0.401914   
O282     O      0.764150000000     0.293890000000     0.542460000000    -0.401624   
O283     O      0.714850000000     0.248330000000     0.537390000000    -0.395955   
O284     O      0.811550000000     0.245890000000     0.544520000000    -0.392297   
O285     O      0.814650000000     0.241540000000     0.992480000000    -0.399788   
O286     O      0.719670000000     0.254790000000     0.985740000000    -0.394974   
O287     O      0.773770000000     0.295050000000     0.991050000000    -0.394882   
O288     O      0.762450000000     0.201750000000     0.987890000000    -0.395342   
O289     O      0.506180000000     0.542700000000     0.270330000000    -0.392807   
O290     O      0.520890000000     0.950510000000     0.261790000000    -0.397996   
O291     O      0.560030000000     0.004650000000     0.260030000000    -0.392897   
O292     O      0.965260000000     0.488430000000     0.271290000000    -0.390299   
O293     O      0.958190000000     0.497350000000     0.220340000000    -0.399371   
O294     O      0.553270000000     0.002000000000     0.208170000000    -0.396614   
O295     O      0.007700000000     0.952760000000     0.211240000000    -0.395309   
O296     O      0.002780000000     0.547000000000     0.218470000000    -0.39134    
O297     O      0.985370000000     0.702330000000     0.233770000000    -0.389656   
O298     O      0.983750000000     0.796270000000     0.240010000000    -0.391574   
O299     O      0.994730000000     0.753080000000     0.191420000000    -0.392425   
O300     O      0.974380000000     0.745830000000     0.284350000000    -0.389035   
O301     O      0.525930000000     0.752140000000     0.295400000000    -0.397234   
O302     O      0.546260000000     0.746850000000     0.202710000000    -0.392536   
O303     O      0.536220000000     0.796350000000     0.247910000000    -0.391556   
O304     O      0.535240000000     0.702360000000     0.251690000000    -0.393924   
O305     O      0.801900000000     0.964880000000     0.265830000000    -0.388711   
O306     O      0.705490000000     0.962500000000     0.256240000000    -0.392483   
O307     O      0.758440000000     0.961670000000     0.213720000000    -0.39534    
O308     O      0.748850000000     0.965190000000     0.308090000000    -0.395609   
O309     O      0.756160000000     0.516340000000     0.306080000000    -0.399783   
O310     O      0.748740000000     0.512450000000     0.211760000000    -0.396885   
O311     O      0.704850000000     0.513750000000     0.262600000000    -0.400728   
O312     O      0.800510000000     0.515490000000     0.255510000000    -0.400829   
O313     O      0.729030000000     0.542960000000     0.012340000000    -0.398689   
O314     O      0.739630000000     0.950670000000     0.022110000000    -0.401892   
O315     O      0.737870000000     0.003000000000     0.063400000000    -0.397497   
O316     O      0.731140000000     0.491250000000     0.469510000000    -0.395992   
O317     O      0.783150000000     0.500910000000     0.465100000000    -0.402702   
O318     O      0.790860000000     0.002740000000     0.059500000000    -0.395654   
O319     O      0.791660000000     0.955010000000     0.512550000000    -0.398776   
O320     O      0.781920000000     0.548320000000     0.510130000000    -0.397764   
O321     O      0.515210000000     0.718930000000     0.040800000000    -0.39791    
O322     O      0.508700000000     0.717820000000     0.445790000000    -0.393646   
O323     O      0.560040000000     0.714360000000     0.491510000000    -0.396397   
O324     O      0.964020000000     0.722650000000     0.995290000000    -0.391854   
O325     O      0.968550000000     0.774150000000     0.996130000000    -0.393286   
O326     O      0.564500000000     0.765820000000     0.488710000000    -0.393435   
O327     O      0.013740000000     0.769220000000     0.444950000000    -0.395228   
O328     O      0.018960000000     0.770460000000     0.039930000000    -0.398103   
O329     O      0.760740000000     0.700780000000     0.040180000000    -0.401334   
O330     O      0.764150000000     0.793890000000     0.042460000000    -0.401065   
O331     O      0.714850000000     0.748330000000     0.037390000000    -0.395419   
O332     O      0.811550000000     0.745880000000     0.044520000000    -0.391872   
O333     O      0.814650000000     0.741540000000     0.492480000000    -0.401719   
O334     O      0.719670000000     0.754790000000     0.485740000000    -0.396849   
O335     O      0.773770000000     0.795050000000     0.491050000000    -0.396742   
O336     O      0.762450000000     0.701750000000     0.487890000000    -0.397212   
O337     O      0.506180000000     0.542700000000     0.770330000000    -0.392785   
O338     O      0.520890000000     0.950510000000     0.761790000000    -0.397975   
O339     O      0.560030000000     0.004650000000     0.760030000000    -0.392885   
O340     O      0.965260000000     0.488430000000     0.771290000000    -0.390342   
O341     O      0.958190000000     0.497350000000     0.720340000000    -0.399236   
O342     O      0.553270000000     0.002000000000     0.708170000000    -0.396569   
O343     O      0.007700000000     0.952760000000     0.711240000000    -0.395274   
O344     O      0.002780000000     0.547000000000     0.718470000000    -0.391315   
O345     O      0.985370000000     0.702330000000     0.733770000000    -0.389664   
O346     O      0.983750000000     0.796270000000     0.740010000000    -0.391545   
O347     O      0.994730000000     0.753080000000     0.691420000000    -0.392396   
O348     O      0.974380000000     0.745830000000     0.784350000000    -0.389041   
O349     O      0.525930000000     0.752140000000     0.795400000000    -0.397245   
O350     O      0.546260000000     0.746850000000     0.702710000000    -0.392523   
O351     O      0.536220000000     0.796350000000     0.747910000000    -0.391566   
O352     O      0.535240000000     0.702360000000     0.751680000000    -0.393982   
O353     O      0.801900000000     0.964880000000     0.765830000000    -0.388722   
O354     O      0.705490000000     0.962500000000     0.756240000000    -0.392497   
O355     O      0.758440000000     0.961670000000     0.713720000000    -0.395336   
O356     O      0.748850000000     0.965190000000     0.808090000000    -0.395598   
O357     O      0.756160000000     0.516340000000     0.806080000000    -0.399782   
O358     O      0.748740000000     0.512450000000     0.711760000000    -0.396883   
O359     O      0.704850000000     0.513750000000     0.762590000000    -0.400739   
O360     O      0.800510000000     0.515490000000     0.755510000000    -0.400801   
O361     O      0.729030000000     0.542960000000     0.512340000000    -0.398434   
O362     O      0.739630000000     0.950670000000     0.522110000000    -0.401796   
O363     O      0.737870000000     0.003000000000     0.563400000000    -0.397744   
O364     O      0.731140000000     0.491250000000     0.969510000000    -0.394533   
O365     O      0.783150000000     0.500910000000     0.965100000000    -0.401253   
O366     O      0.790860000000     0.002740000000     0.559500000000    -0.395887   
O367     O      0.791660000000     0.955010000000     0.012550000000    -0.399036   
O368     O      0.781920000000     0.548320000000     0.010130000000    -0.398131   
O369     O      0.515210000000     0.718930000000     0.540800000000    -0.396431   
O370     O      0.508700000000     0.717820000000     0.945790000000    -0.393869   
O371     O      0.560040000000     0.714360000000     0.991510000000    -0.395911   
O372     O      0.964020000000     0.722650000000     0.495290000000    -0.39219    
O373     O      0.968550000000     0.774150000000     0.496130000000    -0.393785   
O374     O      0.564500000000     0.765820000000     0.988710000000    -0.393193   
O375     O      0.013740000000     0.769220000000     0.944950000000    -0.395455   
O376     O      0.018960000000     0.770460000000     0.539930000000    -0.396622   
O377     O      0.760740000000     0.700780000000     0.540180000000    -0.401907   
O378     O      0.764150000000     0.793890000000     0.542460000000    -0.401632   
O379     O      0.714850000000     0.748330000000     0.537390000000    -0.395974   
O380     O      0.811550000000     0.745880000000     0.544520000000    -0.392323   
O381     O      0.814650000000     0.741540000000     0.992480000000    -0.399803   
O382     O      0.719670000000     0.754790000000     0.985740000000    -0.394971   
O383     O      0.773770000000     0.795050000000     0.991050000000    -0.394889   
O384     O      0.762450000000     0.701750000000     0.987890000000    -0.395346   
S1       S      0.413590000000     0.212210000000     0.451160000000    -0.00975298 
S2       S      0.111700000000     0.271720000000     0.438380000000    -0.011789   
S3       S      0.326940000000     0.388860000000     0.027680000000    -0.00665995 
S4       S      0.216360000000     0.090370000000     0.059930000000    -0.0120536  
S5       S      0.196510000000     0.000880000000     0.402500000000     0.00174562 
S6       S      0.197730000000     0.016060000000     0.166870000000    -0.00978163 
S7       S      0.462370000000     0.197160000000     0.333650000000    -0.0109549  
S8       S      0.555070000000     0.195870000000     0.154830000000    -0.0128466  
S9       S      0.103490000000     0.061020000000     0.256480000000    -0.010476   
S10      S      0.352080000000     0.456350000000     0.310940000000    -0.00801694 
S11      S      0.050260000000     0.343160000000     0.292150000000    -0.0112385  
S12      S      0.038580000000     0.091370000000     0.298400000000    -0.00239541 
S13      S      0.413590000000     0.212210000000     0.951160000000    -0.00904147 
S14      S      0.111700000000     0.271720000000     0.938380000000    -0.0114814  
S15      S      0.326940000000     0.388860000000     0.527680000000    -0.00654475 
S16      S      0.216360000000     0.090370000000     0.559930000000    -0.0118431  
S17      S      0.196510000000     0.000880000000     0.902500000000     0.00230574 
S18      S      0.197730000000     0.016060000000     0.666870000000    -0.0097186  
S19      S      0.462370000000     0.197160000000     0.833650000000    -0.0108869  
S20      S      0.555070000000     0.195870000000     0.654830000000    -0.0127402  
S21      S      0.103490000000     0.061020000000     0.756480000000    -0.0104288  
S22      S      0.352080000000     0.456350000000     0.810940000000    -0.00788126 
S23      S      0.050260000000     0.343160000000     0.792150000000    -0.0111716  
S24      S      0.038580000000     0.091370000000     0.798400000000    -0.0022457  
S25      S      0.413590000000     0.712210000000     0.451160000000    -0.00988062 
S26      S      0.111700000000     0.771720000000     0.438380000000    -0.0118902  
S27      S      0.326940000000     0.888860000000     0.027680000000    -0.00724969 
S28      S      0.216360000000     0.590370000000     0.059930000000    -0.0124057  
S29      S      0.196510000000     0.500880000000     0.402500000000    -0.00290762 
S30      S      0.197730000000     0.516060000000     0.166870000000    -0.0107027  
S31      S      0.462370000000     0.697170000000     0.333650000000    -0.01105    
S32      S      0.555070000000     0.695870000000     0.154830000000    -0.0129073  
S33      S      0.103490000000     0.561020000000     0.256480000000    -0.0107231  
S34      S      0.352080000000     0.956350000000     0.310940000000    -0.0082123  
S35      S      0.050260000000     0.843160000000     0.292150000000    -0.0113863  
S36      S      0.038580000000     0.591370000000     0.298400000000    -0.00295228 
S37      S      0.413590000000     0.712210000000     0.951160000000    -0.00916798 
S38      S      0.111700000000     0.771720000000     0.938380000000    -0.0115826  
S39      S      0.326940000000     0.888860000000     0.527680000000    -0.00713662 
S40      S      0.216360000000     0.590370000000     0.559930000000    -0.0121961  
S41      S      0.196510000000     0.500880000000     0.902500000000    -0.00233642 
S42      S      0.197730000000     0.516060000000     0.666870000000    -0.0106397  
S43      S      0.462370000000     0.697170000000     0.833650000000    -0.0109817  
S44      S      0.555070000000     0.695870000000     0.654830000000    -0.012801   
S45      S      0.103490000000     0.561020000000     0.756480000000    -0.0106758  
S46      S      0.352080000000     0.956350000000     0.810940000000    -0.00807659 
S47      S      0.050260000000     0.843160000000     0.792150000000    -0.0113193  
S48      S      0.038580000000     0.591370000000     0.798400000000    -0.00280143 
S49      S      0.913590000000     0.212210000000     0.451160000000    -0.00870196 
S50      S      0.611700000000     0.271720000000     0.438380000000    -0.0116898  
S51      S      0.826940000000     0.388860000000     0.027680000000    -0.00614672 
S52      S      0.716360000000     0.090370000000     0.059930000000    -0.011952   
S53      S      0.696510000000     0.000880000000     0.402500000000     0.00192708 
S54      S      0.697730000000     0.016060000000     0.166870000000    -0.00972528 
S55      S      0.962370000000     0.197160000000     0.333650000000    -0.00908066 
S56      S      0.055070000000     0.195870000000     0.154830000000    -0.0134002  
S57      S      0.603490000000     0.061020000000     0.256480000000    -0.010424   
S58      S      0.852080000000     0.456350000000     0.310940000000    -0.00759991 
S59      S      0.550260000000     0.343160000000     0.292150000000    -0.0106798  
S60      S      0.538580000000     0.091370000000     0.298400000000    -0.00219576 
S61      S      0.913590000000     0.212210000000     0.951160000000    -0.00798847 
S62      S      0.611700000000     0.271720000000     0.938380000000    -0.011381   
S63      S      0.826940000000     0.388860000000     0.527680000000    -0.00602926 
S64      S      0.716360000000     0.090370000000     0.559930000000    -0.0117396  
S65      S      0.696510000000     0.000880000000     0.902500000000     0.00248944 
S66      S      0.697730000000     0.016060000000     0.666870000000    -0.00966149 
S67      S      0.962370000000     0.197160000000     0.833650000000    -0.00901026 
S68      S      0.055070000000     0.195870000000     0.654830000000    -0.0132967  
S69      S      0.603490000000     0.061020000000     0.756480000000    -0.0103765  
S70      S      0.852080000000     0.456350000000     0.810940000000    -0.00746358 
S71      S      0.550260000000     0.343160000000     0.792150000000    -0.0106118  
S72      S      0.538580000000     0.091370000000     0.798400000000    -0.00204559 
S73      S      0.913590000000     0.712210000000     0.451160000000    -0.00882687 
S74      S      0.611700000000     0.771720000000     0.438380000000    -0.0117912  
S75      S      0.826940000000     0.888860000000     0.027680000000    -0.00673526 
S76      S      0.716360000000     0.590370000000     0.059930000000    -0.0123034  
S77      S      0.696510000000     0.500880000000     0.402500000000    -0.00271769 
S78      S      0.697730000000     0.516060000000     0.166870000000    -0.0106451  
S79      S      0.962370000000     0.697170000000     0.333650000000    -0.00916991 
S80      S      0.055070000000     0.695870000000     0.154830000000    -0.013462   
S81      S      0.603490000000     0.561020000000     0.256480000000    -0.010671   
S82      S      0.852080000000     0.956350000000     0.310940000000    -0.00779574 
S83      S      0.550260000000     0.843160000000     0.292150000000    -0.0108277  
S84      S      0.538580000000     0.591370000000     0.298400000000    -0.00275298 
S85      S      0.913590000000     0.712210000000     0.951160000000    -0.00811227 
S86      S      0.611700000000     0.771720000000     0.938380000000    -0.0114824  
S87      S      0.826940000000     0.888860000000     0.527680000000    -0.00661994 
S88      S      0.716360000000     0.590370000000     0.559930000000    -0.0120919  
S89      S      0.696510000000     0.500880000000     0.902500000000    -0.00214426 
S90      S      0.697730000000     0.516060000000     0.666870000000    -0.0105813  
S91      S      0.962370000000     0.697170000000     0.833650000000    -0.00909915 
S92      S      0.055070000000     0.695870000000     0.654830000000    -0.0133586  
S93      S      0.603490000000     0.561020000000     0.756480000000    -0.0106233  
S94      S      0.852080000000     0.956350000000     0.810940000000    -0.00765938 
S95      S      0.550260000000     0.843160000000     0.792150000000    -0.0107596  
S96      S      0.538580000000     0.591370000000     0.798400000000    -0.00260166 


