data_structure

_audit_creation_method RASPA-1.0
_audit_creation_date 2023-6-4
_audit_author_name 'Poobodin Mano'

_cell_length_a    28.5809
_cell_length_b    29.5388
_cell_length_c    20.9573
_cell_angle_alpha 89.9989
_cell_angle_beta  89.9989
_cell_angle_gamma 96.7519
_cell_volume      17570.4

_symmetry_cell_setting          triclinic
_symmetry_space_group_name_Hall 'P 1'
_symmetry_space_group_name_H-M  'P 1'
_symmetry_Int_Tables_number     1

_symmetry_equiv_pos_as_xyz 'x,y,z'

loop_
_atom_site_label
_atom_site_type_symbol
_atom_site_fract_x
_atom_site_fract_y
_atom_site_fract_z
_atom_site_charge
C1       C      0.059640000000     0.403040000000     0.018270000000     0.385783   
C2       C      0.455870000000     0.044000000000     0.023340000000     0.386394   
C3       C      0.086560000000     0.027610000000     0.018260000000     0.410423   
C4       C      0.427440000000     0.421350000000     0.023890000000     0.409772   
C5       C      0.053130000000     0.430420000000     0.521980000000     0.387163   
C6       C      0.434080000000     0.057730000000     0.495730000000     0.392373   
C7       C      0.057020000000     0.083470000000     0.475810000000     0.411165   
C8       C      0.421840000000     0.430110000000     0.528070000000     0.413281   
C9       C      0.265750000000     0.221850000000     0.904460000000     0.472056   
C10      C      0.257930000000     0.224610000000     0.147020000000     0.4601     
C11      C      0.329710000000     0.175340000000     0.031530000000     0.444128   
C12      C      0.193940000000     0.275630000000     0.021140000000     0.446659   
C13      C      0.238300000000     0.241160000000     0.405760000000     0.461568   
C14      C      0.237730000000     0.235940000000     0.649520000000     0.470912   
C15      C      0.302210000000     0.181700000000     0.522040000000     0.453517   
C16      C      0.177890000000     0.294070000000     0.529040000000     0.440964   
C17      C      0.258430000000     0.274360000000     0.752500000000    -0.00853107 
C18      C      0.211180000000     0.197180000000     0.750980000000    -0.0102187  
C19      C      0.291960000000     0.257780000000     0.801610000000    -0.00889038 
C20      C      0.243640000000     0.181160000000     0.802770000000    -0.00940683 
C21      C      0.219570000000     0.195300000000     0.247270000000    -0.00949617 
C22      C      0.295710000000     0.247270000000     0.250950000000    -0.0101936  
C23      C      0.200120000000     0.222540000000     0.301090000000    -0.00915186 
C24      C      0.276510000000     0.273580000000     0.306460000000    -0.0100319  
C25      C      0.159530000000     0.371440000000     0.557900000000    -0.00998621 
C26      C      0.099250000000     0.316760000000     0.499850000000    -0.0106626  
C27      C      0.115780000000     0.394340000000     0.578160000000    -0.014492   
C28      C      0.081720000000     0.361320000000     0.474450000000    -0.0145249  
C29      C      0.312560000000     0.355530000000     0.489850000000    -0.0311346  
C30      C      0.336860000000     0.335330000000     0.594270000000    -0.0249934  
C31      C      0.357790000000     0.384650000000     0.474620000000     0.00474948 
C32      C      0.381010000000     0.369480000000     0.591980000000    -0.000643419
C33      C      0.370310000000     0.148970000000     0.567820000000    -0.00978128 
C34      C      0.323670000000     0.109520000000     0.477480000000    -0.00837901 
C35      C      0.414440000000     0.129060000000     0.543500000000    -0.0133385  
C36      C      0.369190000000     0.095320000000     0.448880000000    -0.0123545  
C37      C      0.161900000000     0.122430000000     0.466150000000    -0.0187851  
C38      C      0.122950000000     0.149690000000     0.565020000000    -0.0202085  
C39      C      0.119670000000     0.133330000000     0.427050000000    -0.00763197 
C40      C      0.080860000000     0.157740000000     0.523860000000    -0.0031177  
C41      C      0.167910000000     0.349230000000     0.053460000000    -0.00904307 
C42      C      0.113480000000     0.292770000000     0.989210000000    -0.00838393 
C43      C      0.121400000000     0.366390000000     0.074930000000    -0.0151495  
C44      C      0.091260000000     0.336110000000     0.967840000000    -0.014328   
C45      C      0.352240000000     0.391360000000     0.973510000000     0.00291604 
C46      C      0.364750000000     0.383820000000     0.092030000000     0.00243381 
C47      C      0.333200000000     0.340870000000     0.968870000000    -0.0321684  
C48      C      0.325390000000     0.344720000000     0.084560000000    -0.0317432  
C49      C      0.423970000000     0.110530000000     0.974210000000    -0.0126702  
C50      C      0.383590000000     0.069140000000     0.067790000000    -0.0145089  
C51      C      0.408770000000     0.155710000000     0.999500000000    -0.0073817  
C52      C      0.363830000000     0.113370000000     0.087970000000    -0.0094446  
C53      C      0.157040000000     0.063520000000     0.074950000000    -0.00568908 
C54      C      0.143200000000     0.079450000000     0.957880000000    -0.00182538 
C55      C      0.172880000000     0.114300000000     0.083570000000    -0.0148188  
C56      C      0.154730000000     0.129600000000     0.972700000000    -0.0178434  
C57      C      0.058460000000     0.901880000000     0.014110000000     0.38604    
C58      C      0.456410000000     0.544710000000     0.009940000000     0.38657    
C59      C      0.087070000000     0.528800000000     0.004500000000     0.408056   
C60      C      0.425960000000     0.921240000000     0.018500000000     0.411603   
C61      C      0.075510000000     0.952830000000     0.483300000000     0.386068   
C62      C      0.431330000000     0.557070000000     0.513970000000     0.387666   
C63      C      0.061480000000     0.561010000000     0.507980000000     0.411591   
C64      C      0.446250000000     0.929830000000     0.497670000000     0.411669   
C65      C      0.265550000000     0.728790000000     0.878730000000     0.467194   
C66      C      0.263200000000     0.723720000000     0.121330000000     0.456966   
C67      C      0.330430000000     0.676290000000     0.002660000000     0.442688   
C68      C      0.193040000000     0.775030000000     0.001740000000     0.444414   
C69      C      0.251200000000     0.747960000000     0.379300000000     0.469546   
C70      C      0.244350000000     0.753010000000     0.622900000000     0.467261   
C71      C      0.301700000000     0.685380000000     0.509900000000     0.443919   
C72      C      0.198980000000     0.817420000000     0.492880000000     0.440958   
C73      C      0.269540000000     0.787380000000     0.727370000000    -0.00913239 
C74      C      0.209830000000     0.718150000000     0.723030000000    -0.00976827 
C75      C      0.297350000000     0.764500000000     0.778000000000    -0.00932997 
C76      C      0.237190000000     0.695360000000     0.774670000000    -0.00958175 
C77      C      0.224720000000     0.698940000000     0.223520000000    -0.00991321 
C78      C      0.306520000000     0.740360000000     0.223240000000    -0.0112286  
C79      C      0.210880000000     0.730560000000     0.276090000000    -0.00902927 
C80      C      0.293400000000     0.770800000000     0.278330000000    -0.00949886 
C81      C      0.185920000000     0.898170000000     0.511010000000    -0.0093363  
C82      C      0.135300000000     0.849400000000     0.434320000000    -0.0107994  
C83      C      0.142590000000     0.920360000000     0.533590000000    -0.0132656  
C84      C      0.093970000000     0.877710000000     0.447680000000    -0.0149118  
C85      C      0.344970000000     0.853210000000     0.452970000000    -0.0295964  
C86      C      0.360190000000     0.839000000000     0.564110000000    -0.0203624  
C87      C      0.395370000000     0.871490000000     0.440300000000     0.00234843 
C88      C      0.410530000000     0.863120000000     0.559070000000    -0.00416239 
C89      C      0.361580000000     0.649620000000     0.571420000000    -0.0100437  
C90      C      0.321890000000     0.608970000000     0.477480000000    -0.00931253 
C91      C      0.407590000000     0.629310000000     0.555560000000    -0.0141007  
C92      C      0.369330000000     0.593440000000     0.456750000000    -0.0133753  
C93      C      0.162070000000     0.639060000000     0.452210000000    -0.0293371  
C94      C      0.140610000000     0.662380000000     0.557710000000    -0.0265723  
C95      C      0.114490000000     0.611770000000     0.441150000000     0.00161168 
C96      C      0.093070000000     0.633910000000     0.553840000000    -0.000897421
C97      C      0.167450000000     0.847160000000     0.041220000000    -0.00898679 
C98      C      0.112460000000     0.793640000000     0.973470000000    -0.008414   
C99      C      0.121050000000     0.863210000000     0.065500000000    -0.0151244  
C100     C      0.090180000000     0.837850000000     0.956550000000    -0.014254   
C101     C      0.352520000000     0.894850000000     0.961020000000     0.00235271 
C102     C      0.359750000000     0.882880000000     0.079670000000     0.00296202 
C103     C      0.333890000000     0.844560000000     0.951570000000    -0.0305397  
C104     C      0.321230000000     0.844030000000     0.066480000000    -0.0319879  
C105     C      0.424560000000     0.608190000000     0.952940000000    -0.0127749  
C106     C      0.384300000000     0.572300000000     0.050550000000    -0.0145879  
C107     C      0.409100000000     0.654650000000     0.972540000000    -0.00719679 
C108     C      0.364480000000     0.617490000000     0.065170000000    -0.0090388  
C109     C      0.159020000000     0.566330000000     0.055450000000    -0.00397878 
C110     C      0.143310000000     0.576990000000     0.937850000000    -0.00301383 
C111     C      0.174980000000     0.617210000000     0.059660000000    -0.0204305  
C112     C      0.157280000000     0.627750000000     0.947350000000    -0.0197832  
C113     C      0.559640000000     0.403040000000     0.018270000000     0.38583    
C114     C      0.955870000000     0.044000000000     0.023340000000     0.386348   
C115     C      0.586560000000     0.027610000000     0.018260000000     0.410468   
C116     C      0.927430000000     0.421350000000     0.023890000000     0.409752   
C117     C      0.553130000000     0.430420000000     0.521980000000     0.387162   
C118     C      0.934080000000     0.057730000000     0.495730000000     0.392335   
C119     C      0.557020000000     0.083470000000     0.475810000000     0.411219   
C120     C      0.921840000000     0.430110000000     0.528070000000     0.413331   
C121     C      0.765750000000     0.221850000000     0.904460000000     0.472058   
C122     C      0.757940000000     0.224610000000     0.147020000000     0.460273   
C123     C      0.829710000000     0.175340000000     0.031530000000     0.443982   
C124     C      0.693940000000     0.275630000000     0.021140000000     0.446687   
C125     C      0.738300000000     0.241160000000     0.405760000000     0.461555   
C126     C      0.737740000000     0.235940000000     0.649520000000     0.470916   
C127     C      0.802210000000     0.181700000000     0.522040000000     0.45349    
C128     C      0.677890000000     0.294070000000     0.529040000000     0.440981   
C129     C      0.758430000000     0.274360000000     0.752500000000    -0.00853439 
C130     C      0.711180000000     0.197180000000     0.750980000000    -0.0102188  
C131     C      0.791960000000     0.257780000000     0.801610000000    -0.00889326 
C132     C      0.743640000000     0.181160000000     0.802770000000    -0.00940887 
C133     C      0.719570000000     0.195300000000     0.247270000000    -0.00948223 
C134     C      0.795710000000     0.247270000000     0.250950000000    -0.0101868  
C135     C      0.700120000000     0.222540000000     0.301090000000    -0.00915936 
C136     C      0.776510000000     0.273580000000     0.306460000000    -0.0100579  
C137     C      0.659530000000     0.371440000000     0.557900000000    -0.00998104 
C138     C      0.599250000000     0.316760000000     0.499850000000    -0.0106843  
C139     C      0.615780000000     0.394340000000     0.578160000000    -0.0144978  
C140     C      0.581720000000     0.361320000000     0.474450000000    -0.0145156  
C141     C      0.812560000000     0.355530000000     0.489850000000    -0.0311419  
C142     C      0.836860000000     0.335330000000     0.594270000000    -0.024965   
C143     C      0.857790000000     0.384640000000     0.474620000000     0.00474589 
C144     C      0.881010000000     0.369480000000     0.591980000000    -0.000658008
C145     C      0.870310000000     0.148970000000     0.567820000000    -0.00977007 
C146     C      0.823670000000     0.109520000000     0.477480000000    -0.00835969 
C147     C      0.914440000000     0.129060000000     0.543500000000    -0.0133554  
C148     C      0.869180000000     0.095320000000     0.448880000000    -0.0123936  
C149     C      0.661900000000     0.122430000000     0.466150000000    -0.018788   
C150     C      0.622950000000     0.149690000000     0.565020000000    -0.0202177  
C151     C      0.619670000000     0.133330000000     0.427050000000    -0.00763292 
C152     C      0.580860000000     0.157740000000     0.523860000000    -0.00309613 
C153     C      0.667910000000     0.349230000000     0.053460000000    -0.00905535 
C154     C      0.613480000000     0.292770000000     0.989210000000    -0.00838522 
C155     C      0.621390000000     0.366390000000     0.074930000000    -0.0151238  
C156     C      0.591260000000     0.336110000000     0.967840000000    -0.0143242  
C157     C      0.852240000000     0.391360000000     0.973510000000     0.00290948 
C158     C      0.864750000000     0.383820000000     0.092030000000     0.00242262 
C159     C      0.833210000000     0.340870000000     0.968870000000    -0.032123   
C160     C      0.825390000000     0.344720000000     0.084560000000    -0.0317326  
C161     C      0.923980000000     0.110530000000     0.974210000000    -0.0126856  
C162     C      0.883590000000     0.069140000000     0.067790000000    -0.0145025  
C163     C      0.908770000000     0.155710000000     0.999500000000    -0.00736073 
C164     C      0.863830000000     0.113370000000     0.087970000000    -0.00946764 
C165     C      0.657040000000     0.063520000000     0.074950000000    -0.00568066 
C166     C      0.643200000000     0.079450000000     0.957880000000    -0.00181312 
C167     C      0.672880000000     0.114300000000     0.083570000000    -0.0148225  
C168     C      0.654730000000     0.129600000000     0.972700000000    -0.0178554  
C169     C      0.558460000000     0.901880000000     0.014110000000     0.386084   
C170     C      0.956410000000     0.544710000000     0.009940000000     0.386482   
C171     C      0.587070000000     0.528800000000     0.004500000000     0.408037   
C172     C      0.925960000000     0.921240000000     0.018500000000     0.411542   
C173     C      0.575510000000     0.952830000000     0.483300000000     0.38612    
C174     C      0.931330000000     0.557070000000     0.513970000000     0.387715   
C175     C      0.561470000000     0.561010000000     0.507980000000     0.41157    
C176     C      0.946250000000     0.929830000000     0.497670000000     0.411627   
C177     C      0.765550000000     0.728790000000     0.878730000000     0.467362   
C178     C      0.763200000000     0.723720000000     0.121330000000     0.457005   
C179     C      0.830430000000     0.676290000000     0.002660000000     0.442683   
C180     C      0.693040000000     0.775030000000     0.001740000000     0.444416   
C181     C      0.751200000000     0.747960000000     0.379300000000     0.469542   
C182     C      0.744350000000     0.753010000000     0.622900000000     0.467136   
C183     C      0.801700000000     0.685380000000     0.509900000000     0.443918   
C184     C      0.698980000000     0.817420000000     0.492880000000     0.440955   
C185     C      0.769540000000     0.787380000000     0.727370000000    -0.00913958 
C186     C      0.709830000000     0.718150000000     0.723030000000    -0.00978076 
C187     C      0.797350000000     0.764500000000     0.778000000000    -0.00932435 
C188     C      0.737190000000     0.695360000000     0.774670000000    -0.00956153 
C189     C      0.724720000000     0.698940000000     0.223520000000    -0.00991322 
C190     C      0.806520000000     0.740360000000     0.223240000000    -0.0112288  
C191     C      0.710880000000     0.730560000000     0.276090000000    -0.00903169 
C192     C      0.793400000000     0.770800000000     0.278330000000    -0.00949917 
C193     C      0.685920000000     0.898170000000     0.511010000000    -0.00933511 
C194     C      0.635300000000     0.849400000000     0.434320000000    -0.0107948  
C195     C      0.642590000000     0.920360000000     0.533590000000    -0.0132667  
C196     C      0.593970000000     0.877710000000     0.447680000000    -0.0149179  
C197     C      0.844970000000     0.853210000000     0.452970000000    -0.0295924  
C198     C      0.860190000000     0.839000000000     0.564110000000    -0.0203554  
C199     C      0.895370000000     0.871490000000     0.440300000000     0.00233935 
C200     C      0.910530000000     0.863120000000     0.559070000000    -0.00417053 
C201     C      0.861580000000     0.649620000000     0.571420000000    -0.0100345  
C202     C      0.821890000000     0.608970000000     0.477480000000    -0.0093105  
C203     C      0.907590000000     0.629310000000     0.555560000000    -0.0141248  
C204     C      0.869330000000     0.593440000000     0.456750000000    -0.0133784  
C205     C      0.662060000000     0.639060000000     0.452210000000    -0.0293032  
C206     C      0.640610000000     0.662380000000     0.557710000000    -0.0265509  
C207     C      0.614500000000     0.611770000000     0.441150000000     0.00158541 
C208     C      0.593070000000     0.633910000000     0.553840000000    -0.000919683
C209     C      0.667460000000     0.847160000000     0.041220000000    -0.00902229 
C210     C      0.612470000000     0.793640000000     0.973470000000    -0.00836043 
C211     C      0.621050000000     0.863210000000     0.065500000000    -0.0151145  
C212     C      0.590180000000     0.837850000000     0.956550000000    -0.0142727  
C213     C      0.852520000000     0.894850000000     0.961020000000     0.00234465 
C214     C      0.859750000000     0.882880000000     0.079670000000     0.00295362 
C215     C      0.833890000000     0.844560000000     0.951570000000    -0.0305205  
C216     C      0.821230000000     0.844030000000     0.066480000000    -0.031982   
C217     C      0.924560000000     0.608190000000     0.952940000000    -0.0127235  
C218     C      0.884300000000     0.572300000000     0.050550000000    -0.0146049  
C219     C      0.909110000000     0.654660000000     0.972540000000    -0.00729902 
C220     C      0.864480000000     0.617490000000     0.065170000000    -0.00903561 
C221     C      0.659020000000     0.566330000000     0.055450000000    -0.0039638  
C222     C      0.643310000000     0.576990000000     0.937850000000    -0.00301633 
C223     C      0.674980000000     0.617210000000     0.059660000000    -0.0204383  
C224     C      0.657280000000     0.627750000000     0.947350000000    -0.019785   
Cu1      Cu     0.506260000000     0.974340000000     0.959660000000     0.84111    
Cu2      Cu     0.009990000000     0.476760000000     0.072720000000     0.84174    
Cu3      Cu     0.500150000000     0.003250000000     0.429610000000     0.849478   
Cu4      Cu     0.994990000000     0.497910000000     0.576610000000     0.846439   
Cu5      Cu     0.294690000000     0.262510000000     0.026530000000     1.12139    
Cu6      Cu     0.229150000000     0.187910000000     0.025550000000     1.14532    
Cu7      Cu     0.275620000000     0.271530000000     0.531950000000     1.14416    
Cu8      Cu     0.205430000000     0.202300000000     0.523230000000     1.13072    
Cu9      Cu     0.505920000000     0.471140000000     0.955350000000     0.835281   
Cu10     Cu     0.007970000000     0.971700000000     0.077310000000     0.840237   
Cu11     Cu     0.490490000000     0.490650000000     0.459250000000     0.841778   
Cu12     Cu     0.008500000000     0.007410000000     0.546810000000     0.838299   
Cu13     Cu     0.295840000000     0.763270000000     0.002390000000     1.12664    
Cu14     Cu     0.229570000000     0.689580000000     0.999640000000     1.13034    
Cu15     Cu     0.288740000000     0.780860000000     0.505310000000     1.13302    
Cu16     Cu     0.210200000000     0.719180000000     0.496690000000     1.1364     
Cu17     Cu     0.006260000000     0.974340000000     0.959660000000     0.840628   
Cu18     Cu     0.509990000000     0.476760000000     0.072720000000     0.842282   
Cu19     Cu     0.000140000000     0.003250000000     0.429610000000     0.849063   
Cu20     Cu     0.494990000000     0.497910000000     0.576610000000     0.845933   
Cu21     Cu     0.794690000000     0.262510000000     0.026530000000     1.12139    
Cu22     Cu     0.729140000000     0.187910000000     0.025550000000     1.14537    
Cu23     Cu     0.775610000000     0.271530000000     0.531950000000     1.14411    
Cu24     Cu     0.705430000000     0.202300000000     0.523230000000     1.13065    
Cu25     Cu     0.005920000000     0.471140000000     0.955350000000     0.834779   
Cu26     Cu     0.507970000000     0.971700000000     0.077310000000     0.840708   
Cu27     Cu     0.990490000000     0.490650000000     0.459250000000     0.842332   
Cu28     Cu     0.508500000000     0.007410000000     0.546810000000     0.838814   
Cu29     Cu     0.795840000000     0.763270000000     0.002390000000     1.12657    
Cu30     Cu     0.729570000000     0.689580000000     0.999640000000     1.13037    
Cu31     Cu     0.788740000000     0.780860000000     0.505310000000     1.13304    
Cu32     Cu     0.710200000000     0.719180000000     0.496690000000     1.13631    
H1       H      0.180040000000     0.208940000000     0.774850000000     0.0366878  
H2       H      0.230580000000     0.290160000000     0.778560000000     0.0370682  
H3       H      0.306760000000     0.287090000000     0.831500000000     0.0392765  
H4       H      0.198520000000     0.167830000000     0.719770000000     0.0402524  
H5       H      0.222870000000     0.155630000000     0.833610000000     0.0404576  
H6       H      0.271220000000     0.163730000000     0.778690000000     0.0380067  
H7       H      0.278050000000     0.301390000000     0.722780000000     0.0402503  
H8       H      0.321640000000     0.244830000000     0.775700000000     0.0385216  
H9       H      0.316520000000     0.221220000000     0.271360000000     0.0390463  
H10      H      0.234820000000     0.165860000000     0.268690000000     0.036752   
H11      H      0.174390000000     0.199430000000     0.328910000000     0.0399706  
H12      H      0.320130000000     0.271220000000     0.222220000000     0.040114   
H13      H      0.306230000000     0.286500000000     0.338270000000     0.0405415  
H14      H      0.261500000000     0.303600000000     0.286380000000     0.0352392  
H15      H      0.189880000000     0.181490000000     0.215950000000     0.0407589  
H16      H      0.180840000000     0.249280000000     0.279390000000     0.0380318  
H17      H      0.099900000000     0.291970000000     0.459990000000     0.0385307  
H18      H      0.180120000000     0.393450000000     0.522280000000     0.0405979  
H19      H      0.127500000000     0.429010000000     0.597090000000     0.03985    
H20      H      0.073860000000     0.301080000000     0.536000000000     0.0397854  
H21      H      0.104680000000     0.374740000000     0.434270000000     0.0424203  
H22      H      0.045450000000     0.353310000000     0.455080000000     0.0398348  
H23      H      0.182680000000     0.368920000000     0.600120000000     0.0379068  
H24      H      0.097330000000     0.374270000000     0.617500000000     0.0421255  
H25      H      0.307260000000     0.351300000000     0.616030000000     0.0392516  
H26      H      0.287390000000     0.376160000000     0.513670000000     0.041771   
H27      H      0.349570000000     0.415780000000     0.448980000000     0.0351454  
H28      H      0.344360000000     0.306450000000     0.625060000000     0.0398754  
H29      H      0.381520000000     0.391990000000     0.634610000000     0.0386099  
H30      H      0.412450000000     0.350690000000     0.595900000000     0.0377445  
H31      H      0.296360000000     0.342380000000     0.444580000000     0.036618   
H32      H      0.379140000000     0.365640000000     0.441840000000     0.0414022  
H33      H      0.306360000000     0.080820000000     0.506580000000     0.0405988  
H34      H      0.355150000000     0.127150000000     0.607710000000     0.0374954  
H35      H      0.435520000000     0.119950000000     0.585190000000     0.0412473  
H36      H      0.299400000000     0.115860000000     0.437780000000     0.0394729  
H37      H      0.360750000000     0.063020000000     0.421740000000     0.0388686  
H38      H      0.384240000000     0.122200000000     0.415080000000     0.0421638  
H39      H      0.380990000000     0.183450000000     0.588070000000     0.0419571  
H40      H      0.436550000000     0.156490000000     0.517300000000     0.0381256  
H41      H      0.115680000000     0.116890000000     0.591120000000     0.049264   
H42      H      0.158200000000     0.085410000000     0.477570000000     0.0428859  
H43      H      0.115440000000     0.110940000000     0.384240000000     0.0396522  
H44      H      0.128640000000     0.177170000000     0.601170000000     0.0328296  
H45      H      0.047880000000     0.152480000000     0.552540000000     0.0352478  
H46      H      0.085370000000     0.193510000000     0.506300000000     0.0387875  
H47      H      0.194490000000     0.129850000000     0.437530000000     0.0392343  
H48      H      0.124920000000     0.169410000000     0.411210000000     0.042858   
H49      H      0.117440000000     0.270680000000     0.947040000000     0.0368701  
H50      H      0.186660000000     0.374430000000     0.020100000000     0.0393257  
H51      H      0.129750000000     0.400160000000     0.098390000000     0.0405832  
H52      H      0.089050000000     0.272890000000     0.022930000000     0.0403283  
H53      H      0.112750000000     0.353020000000     0.928460000000     0.0425246  
H54      H      0.055390000000     0.325840000000     0.948340000000     0.0400163  
H55      H      0.191000000000     0.347140000000     0.095860000000     0.0361008  
H56      H      0.104050000000     0.342490000000     0.111080000000     0.0426747  
H57      H      0.393130000000     0.372210000000     0.122180000000     0.0429957  
H58      H      0.369410000000     0.402770000000     0.927740000000     0.0401334  
H59      H      0.354120000000     0.324380000000     0.932810000000     0.0451961  
H60      H      0.351180000000     0.412830000000     0.116970000000     0.0304746  
H61      H      0.323390000000     0.324640000000     0.129180000000     0.0385326  
H62      H      0.291080000000     0.358390000000     0.077760000000     0.0394867  
H63      H      0.321970000000     0.411370000000     0.980360000000     0.0304685  
H64      H      0.296090000000     0.338330000000     0.952250000000     0.0370792  
H65      H      0.355370000000     0.047660000000     0.041490000000     0.0387045  
H66      H      0.398240000000     0.096480000000     0.937390000000     0.0427072  
H67      H      0.404850000000     0.178950000000     0.958560000000     0.0403637  
H68      H      0.391150000000     0.049790000000     0.111380000000     0.0417452  
H69      H      0.327730000000     0.104680000000     0.107600000000     0.0405401  
H70      H      0.386090000000     0.128840000000     0.127640000000     0.0380592  
H71      H      0.459040000000     0.117580000000     0.950870000000     0.0389855  
H72      H      0.437020000000     0.172160000000     0.031170000000     0.0408831  
H73      H      0.175480000000     0.065850000000     0.940110000000     0.0395541  
H74      H      0.188940000000     0.045750000000     0.068670000000     0.0365402  
H75      H      0.201570000000     0.118200000000     0.119540000000     0.0342433  
H76      H      0.116310000000     0.075690000000     0.919310000000     0.0398284  
H77      H      0.167880000000     0.147560000000     0.928840000000     0.0364581  
H78      H      0.122710000000     0.144590000000     0.988570000000     0.0390515  
H79      H      0.138970000000     0.049920000000     0.119080000000     0.0409525  
H80      H      0.143250000000     0.132250000000     0.101030000000     0.0374377  
H81      H      0.181970000000     0.735330000000     0.746890000000     0.036725   
H82      H      0.245150000000     0.808180000000     0.752290000000     0.0372849  
H83      H      0.315560000000     0.791210000000     0.809570000000     0.0402668  
H84      H      0.192190000000     0.691370000000     0.691090000000     0.0378552  
H85      H      0.211840000000     0.672770000000     0.803950000000     0.0393892  
H86      H      0.261010000000     0.673570000000     0.750540000000     0.0376646  
H87      H      0.294340000000     0.811010000000     0.698680000000     0.0408115  
H88      H      0.324870000000     0.747310000000     0.753360000000     0.0383184  
H89      H      0.322770000000     0.711320000000     0.244110000000     0.0381494  
H90      H      0.235950000000     0.667940000000     0.246230000000     0.0365591  
H91      H      0.182520000000     0.711780000000     0.305340000000     0.043135   
H92      H      0.333650000000     0.760100000000     0.193070000000     0.0420447  
H93      H      0.324730000000     0.779220000000     0.309420000000     0.0389071  
H94      H      0.283890000000     0.803180000000     0.257740000000     0.0345145  
H95      H      0.193300000000     0.688170000000     0.193520000000     0.0404719  
H96      H      0.195950000000     0.759650000000     0.253200000000     0.0378323  
H97      H      0.152590000000     0.862350000000     0.389280000000     0.0359998  
H98      H      0.204360000000     0.919990000000     0.473330000000     0.0397361  
H99      H      0.154310000000     0.955630000000     0.550300000000     0.0387219  
H100     H      0.120820000000     0.813380000000     0.425120000000     0.0433118  
H101     H      0.076470000000     0.884160000000     0.401700000000     0.0419962  
H102     H      0.067340000000     0.856240000000     0.476670000000     0.0392471  
H103     H      0.210590000000     0.896600000000     0.551800000000     0.0391578  
H104     H      0.126490000000     0.900690000000     0.574940000000     0.0434104  
H105     H      0.335680000000     0.863420000000     0.579830000000     0.0389276  
H106     H      0.324150000000     0.881030000000     0.467770000000     0.0419235  
H107     H      0.395570000000     0.896920000000     0.401160000000     0.0399639  
H108     H      0.359900000000     0.811720000000     0.600600000000     0.0383878  
H109     H      0.418520000000     0.884290000000     0.602440000000     0.0402278  
H110     H      0.435370000000     0.836850000000     0.558060000000     0.0373291  
H111     H      0.329840000000     0.838530000000     0.408030000000     0.0370312  
H112     H      0.414880000000     0.843310000000     0.423390000000     0.037902   
H113     H      0.302330000000     0.581390000000     0.506420000000     0.0391688  
H114     H      0.342790000000     0.627920000000     0.608930000000     0.0367762  
H115     H      0.424750000000     0.620590000000     0.600830000000     0.0415275  
H116     H      0.300580000000     0.614290000000     0.434280000000     0.0377081  
H117     H      0.362370000000     0.560270000000     0.431330000000     0.0395522  
H118     H      0.386750000000     0.618910000000     0.422660000000     0.0421229  
H119     H      0.370520000000     0.684060000000     0.592670000000     0.0417974  
H120     H      0.431970000000     0.656430000000     0.532150000000     0.0389535  
H121     H      0.166970000000     0.642520000000     0.580250000000     0.0375119  
H122     H      0.186820000000     0.616920000000     0.473640000000     0.0420745  
H123     H      0.119490000000     0.581040000000     0.412350000000     0.0372589  
H124     H      0.136170000000     0.692420000000     0.587940000000     0.0367613  
H125     H      0.084870000000     0.618570000000     0.601590000000     0.0401507  
H126     H      0.065760000000     0.656760000000     0.543260000000     0.0363634  
H127     H      0.176410000000     0.651190000000     0.405370000000     0.0414031  
H128     H      0.091710000000     0.632780000000     0.413610000000     0.0396711  
H129     H      0.116060000000     0.773430000000     0.929320000000     0.0370284  
H130     H      0.185830000000     0.873830000000     0.009670000000     0.0390865  
H131     H      0.129490000000     0.895930000000     0.091650000000     0.0403328  
H132     H      0.088280000000     0.772340000000     0.005970000000     0.0409457  
H133     H      0.111590000000     0.856620000000     0.918560000000     0.0427252  
H134     H      0.054260000000     0.828530000000     0.936710000000     0.0398911  
H135     H      0.190990000000     0.843230000000     0.082660000000     0.0351315  
H136     H      0.104120000000     0.837740000000     0.099950000000     0.0428402  
H137     H      0.386540000000     0.870310000000     0.111640000000     0.0431304  
H138     H      0.371570000000     0.908070000000     0.917390000000     0.0406404  
H139     H      0.356090000000     0.829620000000     0.915530000000     0.0447167  
H140     H      0.344680000000     0.910970000000     0.104840000000     0.0296245  
H141     H      0.316890000000     0.822490000000     0.109660000000     0.038433   
H142     H      0.287280000000     0.857900000000     0.057500000000     0.0394582  
H143     H      0.321920000000     0.914520000000     0.967180000000     0.0306376  
H144     H      0.297280000000     0.842360000000     0.932980000000     0.0355432  
H145     H      0.356110000000     0.549270000000     0.026500000000     0.0386655  
H146     H      0.398950000000     0.591900000000     0.917490000000     0.0426427  
H147     H      0.404900000000     0.675360000000     0.929010000000     0.0388793  
H148     H      0.391970000000     0.555630000000     0.096350000000     0.0415581  
H149     H      0.328430000000     0.609910000000     0.085450000000     0.0401089  
H150     H      0.386770000000     0.635370000000     0.103070000000     0.038363   
H151     H      0.459650000000     0.613970000000     0.929410000000     0.0388117  
H152     H      0.437280000000     0.673120000000     0.002490000000     0.0413002  
H153     H      0.174420000000     0.561240000000     0.920430000000     0.0391806  
H154     H      0.190740000000     0.548250000000     0.049310000000     0.0362474  
H155     H      0.203550000000     0.622320000000     0.095670000000     0.0351946  
H156     H      0.115360000000     0.572200000000     0.900720000000     0.0397845  
H157     H      0.171630000000     0.642350000000     0.901850000000     0.0363127  
H158     H      0.126110000000     0.645090000000     0.960440000000     0.0392956  
H159     H      0.142070000000     0.554560000000     0.101200000000     0.0402518  
H160     H      0.145440000000     0.636050000000     0.075080000000     0.0390328  
H161     H      0.680040000000     0.208940000000     0.774850000000     0.0367037  
H162     H      0.730580000000     0.290160000000     0.778560000000     0.0370762  
H163     H      0.806760000000     0.287090000000     0.831500000000     0.0392876  
H164     H      0.698520000000     0.167830000000     0.719770000000     0.0402601  
H165     H      0.722870000000     0.155630000000     0.833610000000     0.0404623  
H166     H      0.771220000000     0.163730000000     0.778690000000     0.0380129  
H167     H      0.778050000000     0.301390000000     0.722780000000     0.0402578  
H168     H      0.821640000000     0.244830000000     0.775700000000     0.0385385  
H169     H      0.816520000000     0.221220000000     0.271360000000     0.0390583  
H170     H      0.734820000000     0.165860000000     0.268690000000     0.0367502  
H171     H      0.674390000000     0.199430000000     0.328910000000     0.0399814  
H172     H      0.820130000000     0.271220000000     0.222220000000     0.0401244  
H173     H      0.806230000000     0.286500000000     0.338270000000     0.0405627  
H174     H      0.761500000000     0.303590000000     0.286380000000     0.0352598  
H175     H      0.689880000000     0.181490000000     0.215950000000     0.0407643  
H176     H      0.680840000000     0.249280000000     0.279390000000     0.0380468  
H177     H      0.599900000000     0.291970000000     0.459990000000     0.0385582  
H178     H      0.680120000000     0.393450000000     0.522280000000     0.0406001  
H179     H      0.627500000000     0.429010000000     0.597090000000     0.039865   
H180     H      0.573870000000     0.301080000000     0.536000000000     0.0398383  
H181     H      0.604680000000     0.374740000000     0.434270000000     0.0424379  
H182     H      0.545450000000     0.353310000000     0.455080000000     0.0398944  
H183     H      0.682680000000     0.368920000000     0.600120000000     0.0379123  
H184     H      0.597330000000     0.374270000000     0.617500000000     0.0421587  
H185     H      0.807250000000     0.351300000000     0.616030000000     0.0392455  
H186     H      0.787390000000     0.376160000000     0.513670000000     0.0417726  
H187     H      0.849570000000     0.415780000000     0.448980000000     0.0351521  
H188     H      0.844360000000     0.306450000000     0.625060000000     0.0398914  
H189     H      0.881520000000     0.391990000000     0.634610000000     0.0386348  
H190     H      0.912450000000     0.350690000000     0.595900000000     0.0378021  
H191     H      0.796360000000     0.342380000000     0.444580000000     0.0366257  
H192     H      0.879130000000     0.365640000000     0.441840000000     0.0414352  
H193     H      0.806360000000     0.080820000000     0.506580000000     0.0405962  
H194     H      0.855160000000     0.127150000000     0.607710000000     0.0375055  
H195     H      0.935520000000     0.119950000000     0.585190000000     0.0413113  
H196     H      0.799400000000     0.115860000000     0.437780000000     0.039473   
H197     H      0.860750000000     0.063020000000     0.421740000000     0.0388917  
H198     H      0.884240000000     0.122200000000     0.415080000000     0.042207   
H199     H      0.881000000000     0.183450000000     0.588070000000     0.041978   
H200     H      0.936550000000     0.156490000000     0.517300000000     0.0381988  
H201     H      0.615680000000     0.116890000000     0.591120000000     0.0492731  
H202     H      0.658200000000     0.085410000000     0.477570000000     0.0428789  
H203     H      0.615440000000     0.110940000000     0.384240000000     0.0396663  
H204     H      0.628640000000     0.177170000000     0.601170000000     0.0328484  
H205     H      0.547880000000     0.152480000000     0.552540000000     0.0353127  
H206     H      0.585370000000     0.193520000000     0.506300000000     0.0388072  
H207     H      0.694490000000     0.129850000000     0.437530000000     0.0392358  
H208     H      0.624920000000     0.169410000000     0.411210000000     0.0428734  
H209     H      0.617440000000     0.270680000000     0.947040000000     0.036893   
H210     H      0.686660000000     0.374430000000     0.020100000000     0.0393271  
H211     H      0.629750000000     0.400160000000     0.098390000000     0.0405821  
H212     H      0.589050000000     0.272890000000     0.022930000000     0.0403682  
H213     H      0.612750000000     0.353020000000     0.928460000000     0.0425358  
H214     H      0.555390000000     0.325840000000     0.948340000000     0.0400714  
H215     H      0.691000000000     0.347140000000     0.095860000000     0.0361082  
H216     H      0.604050000000     0.342490000000     0.111080000000     0.0426975  
H217     H      0.893120000000     0.372210000000     0.122180000000     0.0430369  
H218     H      0.869410000000     0.402770000000     0.927740000000     0.0401584  
H219     H      0.854110000000     0.324380000000     0.932810000000     0.0452132  
H220     H      0.851180000000     0.412830000000     0.116970000000     0.0304893  
H221     H      0.823390000000     0.324640000000     0.129180000000     0.038543   
H222     H      0.791080000000     0.358390000000     0.077760000000     0.0394858  
H223     H      0.821970000000     0.411370000000     0.980370000000     0.0304741  
H224     H      0.796080000000     0.338330000000     0.952250000000     0.0370553  
H225     H      0.855370000000     0.047660000000     0.041490000000     0.0387058  
H226     H      0.898240000000     0.096480000000     0.937390000000     0.042728   
H227     H      0.904850000000     0.178950000000     0.958560000000     0.0403961  
H228     H      0.891160000000     0.049790000000     0.111380000000     0.0417718  
H229     H      0.827730000000     0.104680000000     0.107600000000     0.0405446  
H230     H      0.886090000000     0.128840000000     0.127640000000     0.0380952  
H231     H      0.959040000000     0.117580000000     0.950870000000     0.0390636  
H232     H      0.937020000000     0.172160000000     0.031170000000     0.040941   
H233     H      0.675480000000     0.065850000000     0.940110000000     0.0395539  
H234     H      0.688940000000     0.045750000000     0.068670000000     0.0365375  
H235     H      0.701570000000     0.118200000000     0.119540000000     0.0342419  
H236     H      0.616310000000     0.075690000000     0.919310000000     0.039852   
H237     H      0.667880000000     0.147560000000     0.928840000000     0.0364639  
H238     H      0.622710000000     0.144590000000     0.988570000000     0.0390807  
H239     H      0.638970000000     0.049920000000     0.119080000000     0.0409615  
H240     H      0.643250000000     0.132250000000     0.101030000000     0.0374542  
H241     H      0.681970000000     0.735330000000     0.746890000000     0.0367439  
H242     H      0.745150000000     0.808180000000     0.752290000000     0.0372934  
H243     H      0.815560000000     0.791210000000     0.809570000000     0.0402784  
H244     H      0.692190000000     0.691370000000     0.691090000000     0.037869   
H245     H      0.711840000000     0.672770000000     0.803950000000     0.0393935  
H246     H      0.761020000000     0.673570000000     0.750540000000     0.0376638  
H247     H      0.794340000000     0.811010000000     0.698680000000     0.0408235  
H248     H      0.824870000000     0.747310000000     0.753360000000     0.0383331  
H249     H      0.822770000000     0.711320000000     0.244110000000     0.0381662  
H250     H      0.735950000000     0.667940000000     0.246230000000     0.0365644  
H251     H      0.682520000000     0.711780000000     0.305340000000     0.0431481  
H252     H      0.833650000000     0.760100000000     0.193070000000     0.0420679  
H253     H      0.824730000000     0.779220000000     0.309420000000     0.038923   
H254     H      0.783890000000     0.803180000000     0.257740000000     0.0345204  
H255     H      0.693300000000     0.688170000000     0.193520000000     0.0404828  
H256     H      0.695950000000     0.759650000000     0.253200000000     0.0378425  
H257     H      0.652590000000     0.862350000000     0.389280000000     0.0360062  
H258     H      0.704360000000     0.919990000000     0.473330000000     0.0397357  
H259     H      0.654310000000     0.955630000000     0.550300000000     0.0387241  
H260     H      0.620820000000     0.813380000000     0.425120000000     0.043335   
H261     H      0.576470000000     0.884160000000     0.401700000000     0.0420359  
H262     H      0.567340000000     0.856240000000     0.476670000000     0.0393038  
H263     H      0.710590000000     0.896600000000     0.551800000000     0.0391598  
H264     H      0.626490000000     0.900690000000     0.574940000000     0.043433   
H265     H      0.835680000000     0.863420000000     0.579830000000     0.0389316  
H266     H      0.824150000000     0.881030000000     0.467770000000     0.0419223  
H267     H      0.895570000000     0.896920000000     0.401160000000     0.0399876  
H268     H      0.859900000000     0.811720000000     0.600600000000     0.0384088  
H269     H      0.918530000000     0.884290000000     0.602440000000     0.0402701  
H270     H      0.935370000000     0.836850000000     0.558060000000     0.0373913  
H271     H      0.829840000000     0.838530000000     0.408030000000     0.0370366  
H272     H      0.914880000000     0.843310000000     0.423390000000     0.0379545  
H273     H      0.802330000000     0.581390000000     0.506420000000     0.0391689  
H274     H      0.842790000000     0.627920000000     0.608930000000     0.0367814  
H275     H      0.924750000000     0.620590000000     0.600830000000     0.0415784  
H276     H      0.800580000000     0.614290000000     0.434280000000     0.0377123  
H277     H      0.862370000000     0.560270000000     0.431330000000     0.0395614  
H278     H      0.886750000000     0.618910000000     0.422660000000     0.0421543  
H279     H      0.870520000000     0.684060000000     0.592670000000     0.0418167  
H280     H      0.931960000000     0.656430000000     0.532150000000     0.0390231  
H281     H      0.666980000000     0.642520000000     0.580250000000     0.0375018  
H282     H      0.686820000000     0.616920000000     0.473640000000     0.0420577  
H283     H      0.619490000000     0.581040000000     0.412350000000     0.0372873  
H284     H      0.636170000000     0.692420000000     0.587940000000     0.036774   
H285     H      0.584870000000     0.618570000000     0.601590000000     0.0401967  
H286     H      0.565760000000     0.656760000000     0.543260000000     0.0364281  
H287     H      0.676410000000     0.651190000000     0.405370000000     0.0413939  
H288     H      0.591710000000     0.632780000000     0.413610000000     0.0397182  
H289     H      0.616060000000     0.773430000000     0.929320000000     0.0370373  
H290     H      0.685830000000     0.873830000000     0.009670000000     0.0390974  
H291     H      0.629490000000     0.895930000000     0.091650000000     0.0403354  
H292     H      0.588280000000     0.772340000000     0.005970000000     0.0409696  
H293     H      0.611590000000     0.856620000000     0.918560000000     0.0427422  
H294     H      0.554260000000     0.828530000000     0.936710000000     0.0399516  
H295     H      0.690990000000     0.843230000000     0.082660000000     0.0351459  
H296     H      0.604120000000     0.837740000000     0.099950000000     0.0428659  
H297     H      0.886540000000     0.870310000000     0.111640000000     0.0431675  
H298     H      0.871570000000     0.908070000000     0.917390000000     0.0406658  
H299     H      0.856100000000     0.829620000000     0.915530000000     0.0447317  
H300     H      0.844680000000     0.910970000000     0.104840000000     0.0296358  
H301     H      0.816890000000     0.822490000000     0.109660000000     0.0384397  
H302     H      0.787280000000     0.857900000000     0.057500000000     0.0394566  
H303     H      0.821920000000     0.914520000000     0.967180000000     0.0306424  
H304     H      0.797280000000     0.842360000000     0.932980000000     0.0355474  
H305     H      0.856120000000     0.549270000000     0.026500000000     0.0386765  
H306     H      0.898940000000     0.591900000000     0.917490000000     0.042643   
H307     H      0.904900000000     0.675360000000     0.929010000000     0.0389408  
H308     H      0.891970000000     0.555630000000     0.096350000000     0.0415836  
H309     H      0.828430000000     0.609910000000     0.085450000000     0.0401126  
H310     H      0.886770000000     0.635370000000     0.103070000000     0.038393   
H311     H      0.959650000000     0.613970000000     0.929410000000     0.0388727  
H312     H      0.937280000000     0.673120000000     0.002490000000     0.0413902  
H313     H      0.674420000000     0.561240000000     0.920430000000     0.0391861  
H314     H      0.690740000000     0.548250000000     0.049310000000     0.0362455  
H315     H      0.703550000000     0.622320000000     0.095670000000     0.0351995  
H316     H      0.615360000000     0.572200000000     0.900720000000     0.0398116  
H317     H      0.671630000000     0.642350000000     0.901850000000     0.0363238  
H318     H      0.626110000000     0.645090000000     0.960440000000     0.0393239  
H319     H      0.642070000000     0.554560000000     0.101200000000     0.0402595  
H320     H      0.645440000000     0.636050000000     0.075080000000     0.0390542  
N1       N      0.266890000000     0.220400000000     0.839140000000    -0.17946    
N2       N      0.236040000000     0.235470000000     0.714840000000    -0.179366   
N3       N      0.238940000000     0.244700000000     0.340500000000    -0.177521   
N4       N      0.256930000000     0.223860000000     0.212430000000    -0.177445   
N5       N      0.082740000000     0.396740000000     0.524480000000    -0.162595   
N6       N      0.146230000000     0.325910000000     0.529620000000    -0.173585   
N7       N      0.385280000000     0.396920000000     0.532890000000    -0.172765   
N8       N      0.324230000000     0.318380000000     0.530350000000    -0.226117   
N9       N      0.403510000000     0.090120000000     0.499630000000    -0.163325   
N10      N      0.333710000000     0.150070000000     0.518540000000    -0.175147   
N11      N      0.079420000000     0.126260000000     0.469880000000    -0.17267    
N12      N      0.165670000000     0.148610000000     0.526250000000    -0.228816   
N13      N      0.089020000000     0.369120000000     0.020520000000    -0.162248   
N14      N      0.159390000000     0.304590000000     0.021140000000    -0.175151   
N15      N      0.335940000000     0.316420000000     0.029850000000    -0.217077   
N16      N      0.383430000000     0.398860000000     0.029170000000    -0.17038    
N17      N      0.364690000000     0.147160000000     0.036100000000    -0.172518   
N18      N      0.425300000000     0.076760000000     0.025780000000    -0.161967   
N19      N      0.190510000000     0.133510000000     0.022680000000    -0.231526   
N20      N      0.127540000000     0.055740000000     0.017280000000    -0.17158    
N21      N      0.265960000000     0.729980000000     0.813270000000    -0.178259   
N22      N      0.241570000000     0.752600000000     0.688230000000    -0.178534   
N23      N      0.252610000000     0.748460000000     0.313920000000    -0.179254   
N24      N      0.264320000000     0.722030000000     0.186640000000    -0.177501   
N25      N      0.107060000000     0.920800000000     0.482660000000    -0.1614     
N26      N      0.171570000000     0.852490000000     0.484750000000    -0.171833   
N27      N      0.416940000000     0.890280000000     0.500000000000    -0.172045   
N28      N      0.345020000000     0.818680000000     0.502610000000    -0.226083   
N29      N      0.400730000000     0.589850000000     0.511920000000    -0.161785   
N30      N      0.329680000000     0.650700000000     0.516200000000    -0.173237   
N31      N      0.092070000000     0.599430000000     0.502780000000    -0.172664   
N32      N      0.156090000000     0.677700000000     0.494060000000    -0.223513   
N33      N      0.088110000000     0.868190000000     0.012350000000    -0.16226    
N34      N      0.158650000000     0.804040000000     0.005210000000    -0.17473    
N35      N      0.334970000000     0.818000000000     0.010940000000    -0.21819    
N36      N      0.381310000000     0.899960000000     0.019340000000    -0.170634   
N37      N      0.365100000000     0.648020000000     0.009460000000    -0.172199   
N38      N      0.425960000000     0.577580000000     0.008340000000    -0.16195    
N39      N      0.192970000000     0.633660000000     0.997520000000    -0.227103   
N40      N      0.128170000000     0.556550000000     0.999600000000    -0.169938   
N41      N      0.766890000000     0.220400000000     0.839140000000    -0.179458   
N42      N      0.736040000000     0.235470000000     0.714840000000    -0.179362   
N43      N      0.738940000000     0.244700000000     0.340500000000    -0.177512   
N44      N      0.756930000000     0.223860000000     0.212430000000    -0.177477   
N45      N      0.582740000000     0.396740000000     0.524480000000    -0.162575   
N46      N      0.646230000000     0.325910000000     0.529620000000    -0.173582   
N47      N      0.885280000000     0.396920000000     0.532890000000    -0.17276    
N48      N      0.824230000000     0.318380000000     0.530350000000    -0.226054   
N49      N      0.903510000000     0.090120000000     0.499630000000    -0.163296   
N50      N      0.833710000000     0.150070000000     0.518540000000    -0.17514    
N51      N      0.579420000000     0.126260000000     0.469880000000    -0.172661   
N52      N      0.665670000000     0.148610000000     0.526250000000    -0.228808   
N53      N      0.589020000000     0.369120000000     0.020520000000    -0.162247   
N54      N      0.659390000000     0.304590000000     0.021140000000    -0.175151   
N55      N      0.835940000000     0.316420000000     0.029850000000    -0.217074   
N56      N      0.883430000000     0.398860000000     0.029170000000    -0.170401   
N57      N      0.864700000000     0.147160000000     0.036100000000    -0.172453   
N58      N      0.925300000000     0.076760000000     0.025780000000    -0.161938   
N59      N      0.690510000000     0.133510000000     0.022680000000    -0.231569   
N60      N      0.627540000000     0.055740000000     0.017280000000    -0.171583   
N61      N      0.765960000000     0.729980000000     0.813280000000    -0.178324   
N62      N      0.741570000000     0.752600000000     0.688230000000    -0.178507   
N63      N      0.752610000000     0.748460000000     0.313920000000    -0.179252   
N64      N      0.764320000000     0.722030000000     0.186640000000    -0.177503   
N65      N      0.607060000000     0.920800000000     0.482660000000    -0.1614     
N66      N      0.671570000000     0.852490000000     0.484750000000    -0.17183    
N67      N      0.916940000000     0.890280000000     0.500000000000    -0.172018   
N68      N      0.845020000000     0.818680000000     0.502610000000    -0.226078   
N69      N      0.900730000000     0.589850000000     0.511920000000    -0.161777   
N70      N      0.829680000000     0.650700000000     0.516200000000    -0.173234   
N71      N      0.592070000000     0.599430000000     0.502780000000    -0.172608   
N72      N      0.656080000000     0.677700000000     0.494060000000    -0.223459   
N73      N      0.588110000000     0.868190000000     0.012350000000    -0.162253   
N74      N      0.658650000000     0.804040000000     0.005210000000    -0.174729   
N75      N      0.834970000000     0.818000000000     0.010940000000    -0.218177   
N76      N      0.881310000000     0.899960000000     0.019340000000    -0.17061    
N77      N      0.865100000000     0.648020000000     0.009460000000    -0.172178   
N78      N      0.925960000000     0.577580000000     0.008340000000    -0.161922   
N79      N      0.692970000000     0.633660000000     0.997520000000    -0.227104   
N80      N      0.628180000000     0.556550000000     0.999600000000    -0.169898   
O1       O      0.042310000000     0.414750000000     0.964740000000    -0.382103   
O2       O      0.471000000000     0.031090000000     0.969180000000    -0.385147   
O3       O      0.067480000000     0.014250000000     0.965300000000    -0.410031   
O4       O      0.444170000000     0.432160000000     0.968550000000    -0.405066   
O5       O      0.450690000000     0.433110000000     0.074620000000    -0.406455   
O6       O      0.067500000000     0.015200000000     0.071710000000    -0.406455   
O7       O      0.466830000000     0.024220000000     0.075030000000    -0.388483   
O8       O      0.050840000000     0.424180000000     0.069790000000    -0.388461   
O9       O      0.035170000000     0.440960000000     0.468380000000    -0.386656   
O10      O      0.446480000000     0.043470000000     0.440830000000    -0.388379   
O11      O      0.045810000000     0.060180000000     0.425580000000    -0.408761   
O12      O      0.435810000000     0.443590000000     0.472590000000    -0.412425   
O13      O      0.442150000000     0.446750000000     0.578750000000    -0.409848   
O14      O      0.047940000000     0.067110000000     0.531670000000    -0.408609   
O15      O      0.453040000000     0.044590000000     0.546970000000    -0.393207   
O16      O      0.043010000000     0.451050000000     0.573430000000    -0.387518   
O17      O      0.286610000000     0.255600000000     0.934450000000    -0.4706     
O18      O      0.291850000000     0.247160000000     0.117460000000    -0.465823   
O19      O      0.339500000000     0.217240000000     0.016600000000    -0.443266   
O20      O      0.236410000000     0.291510000000     0.032930000000    -0.46535    
O21      O      0.184090000000     0.232990000000     0.010850000000    -0.450624   
O22      O      0.287120000000     0.159870000000     0.043750000000    -0.45288    
O23      O      0.225350000000     0.202010000000     0.115350000000    -0.472546   
O24      O      0.243530000000     0.189550000000     0.935490000000    -0.478471   
O25      O      0.270770000000     0.262760000000     0.439100000000    -0.472314   
O26      O      0.263680000000     0.267180000000     0.621460000000    -0.479154   
O27      O      0.314200000000     0.221410000000     0.544150000000    -0.457068   
O28      O      0.221800000000     0.307210000000     0.534980000000    -0.457904   
O29      O      0.163920000000     0.251540000000     0.522520000000    -0.445572   
O30      O      0.260140000000     0.171120000000     0.503830000000    -0.468042   
O31      O      0.213620000000     0.205510000000     0.616580000000    -0.471754   
O32      O      0.205340000000     0.216190000000     0.433460000000    -0.463919   
O33      O      0.042100000000     0.917240000000     0.962080000000    -0.382311   
O34      O      0.470530000000     0.528030000000     0.957570000000    -0.385367   
O35      O      0.067140000000     0.511860000000     0.953800000000    -0.406162   
O36      O      0.444300000000     0.935280000000     0.965380000000    -0.408048   
O37      O      0.448120000000     0.928900000000     0.071250000000    -0.406505   
O38      O      0.068950000000     0.519970000000     0.059630000000    -0.406796   
O39      O      0.468250000000     0.528610000000     0.063900000000    -0.388045   
O40      O      0.048650000000     0.919320000000     0.068050000000    -0.388293   
O41      O      0.053480000000     0.961660000000     0.431910000000    -0.38637    
O42      O      0.444290000000     0.539080000000     0.461870000000    -0.387553   
O43      O      0.045650000000     0.540020000000     0.457450000000    -0.407025   
O44      O      0.454950000000     0.948310000000     0.443320000000    -0.41726    
O45      O      0.465120000000     0.947750000000     0.548740000000    -0.402064   
O46      O      0.046340000000     0.548450000000     0.563270000000    -0.413114   
O47      O      0.447700000000     0.545100000000     0.567880000000    -0.387491   
O48      O      0.065290000000     0.971180000000     0.536410000000    -0.389026   
O49      O      0.290140000000     0.759400000000     0.910390000000    -0.472039   
O50      O      0.297590000000     0.744220000000     0.090820000000    -0.469272   
O51      O      0.340770000000     0.718360000000     0.988940000000    -0.435242   
O52      O      0.235980000000     0.790440000000     0.011830000000    -0.464562   
O53      O      0.182590000000     0.732690000000     0.990160000000    -0.446471   
O54      O      0.287690000000     0.661090000000     0.014160000000    -0.454587   
O55      O      0.228120000000     0.704420000000     0.090490000000    -0.464636   
O56      O      0.240540000000     0.697150000000     0.908180000000    -0.471642   
O57      O      0.284770000000     0.767910000000     0.412440000000    -0.471137   
O58      O      0.274390000000     0.781120000000     0.595040000000    -0.467662   
O59      O      0.317370000000     0.725730000000     0.526310000000    -0.4553     
O60      O      0.243230000000     0.826020000000     0.502400000000    -0.452398   
O61      O      0.180480000000     0.776020000000     0.488590000000    -0.44605    
O62      O      0.259670000000     0.677500000000     0.488790000000    -0.455044   
O63      O      0.217440000000     0.724860000000     0.589810000000    -0.477019   
O64      O      0.215740000000     0.727810000000     0.407250000000    -0.476972   
O65      O      0.542310000000     0.414750000000     0.964740000000    -0.382109   
O66      O      0.971000000000     0.031090000000     0.969180000000    -0.384916   
O67      O      0.567480000000     0.014250000000     0.965300000000    -0.410066   
O68      O      0.944160000000     0.432160000000     0.968550000000    -0.404811   
O69      O      0.950680000000     0.433110000000     0.074620000000    -0.406186   
O70      O      0.567500000000     0.015200000000     0.071710000000    -0.406485   
O71      O      0.966830000000     0.024220000000     0.075030000000    -0.388257   
O72      O      0.550840000000     0.424180000000     0.069790000000    -0.388481   
O73      O      0.535180000000     0.440960000000     0.468380000000    -0.386431   
O74      O      0.946480000000     0.043470000000     0.440830000000    -0.388221   
O75      O      0.545810000000     0.060180000000     0.425580000000    -0.408806   
O76      O      0.935810000000     0.443590000000     0.472590000000    -0.412455   
O77      O      0.942150000000     0.446750000000     0.578750000000    -0.409871   
O78      O      0.547930000000     0.067110000000     0.531670000000    -0.408655   
O79      O      0.953040000000     0.044590000000     0.546970000000    -0.392997   
O80      O      0.543010000000     0.451050000000     0.573430000000    -0.387315   
O81      O      0.786610000000     0.255600000000     0.934450000000    -0.470602   
O82      O      0.791840000000     0.247160000000     0.117460000000    -0.465981   
O83      O      0.839510000000     0.217240000000     0.016600000000    -0.443145   
O84      O      0.736410000000     0.291510000000     0.032930000000    -0.465348   
O85      O      0.684090000000     0.232990000000     0.010850000000    -0.450689   
O86      O      0.787120000000     0.159870000000     0.043750000000    -0.452797   
O87      O      0.725350000000     0.202010000000     0.115350000000    -0.472546   
O88      O      0.743530000000     0.189550000000     0.935490000000    -0.478465   
O89      O      0.770770000000     0.262760000000     0.439100000000    -0.472297   
O90      O      0.763680000000     0.267180000000     0.621460000000    -0.4792     
O91      O      0.814200000000     0.221410000000     0.544150000000    -0.456986   
O92      O      0.721800000000     0.307210000000     0.534980000000    -0.457962   
O93      O      0.663920000000     0.251540000000     0.522520000000    -0.445565   
O94      O      0.760140000000     0.171120000000     0.503830000000    -0.468027   
O95      O      0.713620000000     0.205510000000     0.616580000000    -0.471708   
O96      O      0.705340000000     0.216190000000     0.433460000000    -0.463908   
O97      O      0.542100000000     0.917240000000     0.962080000000    -0.382321   
O98      O      0.970540000000     0.528030000000     0.957570000000    -0.385132   
O99      O      0.567140000000     0.511860000000     0.953800000000    -0.406188   
O100     O      0.944300000000     0.935280000000     0.965380000000    -0.407821   
O101     O      0.948120000000     0.928900000000     0.071250000000    -0.406274   
O102     O      0.568950000000     0.519970000000     0.059630000000    -0.406821   
O103     O      0.968250000000     0.528610000000     0.063900000000    -0.387795   
O104     O      0.548650000000     0.919320000000     0.068050000000    -0.388313   
O105     O      0.553480000000     0.961660000000     0.431910000000    -0.386436   
O106     O      0.944290000000     0.539080000000     0.461870000000    -0.387574   
O107     O      0.545650000000     0.540020000000     0.457450000000    -0.406823   
O108     O      0.954960000000     0.948310000000     0.443320000000    -0.417092   
O109     O      0.965120000000     0.947750000000     0.548740000000    -0.401822   
O110     O      0.546340000000     0.548450000000     0.563270000000    -0.412915   
O111     O      0.947700000000     0.545100000000     0.567880000000    -0.387507   
O112     O      0.565290000000     0.971180000000     0.536410000000    -0.389071   
O113     O      0.790130000000     0.759400000000     0.910390000000    -0.472104   
O114     O      0.797590000000     0.744220000000     0.090830000000    -0.469244   
O115     O      0.840770000000     0.718360000000     0.988940000000    -0.435226   
O116     O      0.735980000000     0.790440000000     0.011830000000    -0.464551   
O117     O      0.682590000000     0.732690000000     0.990160000000    -0.446462   
O118     O      0.787690000000     0.661090000000     0.014160000000    -0.454592   
O119     O      0.728120000000     0.704420000000     0.090490000000    -0.464653   
O120     O      0.740540000000     0.697150000000     0.908180000000    -0.471683   
O121     O      0.784770000000     0.767910000000     0.412440000000    -0.471132   
O122     O      0.774400000000     0.781120000000     0.595040000000    -0.467592   
O123     O      0.817370000000     0.725730000000     0.526310000000    -0.455284   
O124     O      0.743230000000     0.826020000000     0.502400000000    -0.452406   
O125     O      0.680480000000     0.776020000000     0.488590000000    -0.44603    
O126     O      0.759670000000     0.677500000000     0.488790000000    -0.455037   
O127     O      0.717440000000     0.724860000000     0.589810000000    -0.476978   
O128     O      0.715740000000     0.727810000000     0.407250000000    -0.476957   


