data_structure

_audit_creation_method RASPA-1.0
_audit_creation_date 2023-5-22
_audit_author_name 'Poobodin Mano'

_cell_length_a    43.0217
_cell_length_b    42.8141
_cell_length_c    42.5616
_cell_angle_alpha 90
_cell_angle_beta  90
_cell_angle_gamma 90
_cell_volume      78395.7

_symmetry_cell_setting          triclinic
_symmetry_space_group_name_Hall 'P 1'
_symmetry_space_group_name_H-M  'P 1'
_symmetry_Int_Tables_number     1

_symmetry_equiv_pos_as_xyz 'x,y,z'

loop_
_atom_site_label
_atom_site_type_symbol
_atom_site_fract_x
_atom_site_fract_y
_atom_site_fract_z
_atom_site_charge
C1       C      0.510590000000     0.983290000000     0.197730000000     0.401653   
C2       C      0.005160000000     0.493800000000     0.073290000000     0.400615   
C3       C      0.010010000000     0.050260000000     0.140800000000     0.400886   
C4       C      0.005540000000     0.426390000000     0.129690000000     0.400125   
C5       C      0.005220000000     0.242730000000     0.066570000000     0.39864    
C6       C      0.511210000000     0.231290000000     0.191140000000     0.400082   
C7       C      0.510130000000     0.175220000000     0.123080000000     0.40044    
C8       C      0.506510000000     0.298990000000     0.135500000000     0.399784   
C9       C      0.255570000000     0.513210000000     0.201610000000     0.39975    
C10      C      0.247670000000     0.495170000000     0.078110000000     0.400893   
C11      C      0.249370000000     0.066500000000     0.129730000000     0.396497   
C12      C      0.254220000000     0.443150000000     0.147620000000     0.398941   
C13      C      0.247350000000     0.258340000000     0.057300000000     0.400086   
C14      C      0.257310000000     0.259090000000     0.181700000000     0.403902   
C15      C      0.250350000000     0.195660000000     0.121820000000     0.396318   
C16      C      0.254120000000     0.320310000000     0.119780000000     0.398737   
C17      C      0.999970000000     0.523920000000     0.950220000000     0.400943   
C18      C      0.994800000000     0.517470000000     0.825310000000     0.398902   
C19      C      0.994980000000     0.082620000000     0.885710000000     0.402238   
C20      C      0.000040000000     0.458900000000     0.892270000000     0.4033     
C21      C      0.999340000000     0.268570000000     0.940400000000     0.398819   
C22      C      0.994430000000     0.273640000000     0.815540000000     0.40264    
C23      C      0.998780000000     0.332940000000     0.879320000000     0.402794   
C24      C      0.994710000000     0.209130000000     0.873890000000     0.402438   
C25      C      0.238840000000     0.502450000000     0.950670000000     0.400664   
C26      C      0.231120000000     0.504690000000     0.826080000000     0.402631   
C27      C      0.236950000000     0.440410000000     0.887430000000     0.398452   
C28      C      0.232560000000     0.064910000000     0.889360000000     0.399517   
C29      C      0.237660000000     0.249430000000     0.928950000000     0.40022    
C30      C      0.227520000000     0.252090000000     0.804410000000     0.401102   
C31      C      0.234480000000     0.313910000000     0.867420000000     0.398508   
C32      C      0.230980000000     0.189380000000     0.865520000000     0.399535   
C33      C      0.029480000000     0.999690000000     0.445420000000     0.400632   
C34      C      0.033830000000     0.000470000000     0.320250000000     0.398016   
C35      C      0.093680000000     0.002260000000     0.384170000000     0.397835   
C36      C      0.470260000000     0.998320000000     0.378770000000     0.404447   
C37      C      0.999570000000     0.242530000000     0.317950000000     0.399787   
C38      C      0.997460000000     0.247270000000     0.442950000000     0.400216   
C39      C      0.436500000000     0.246930000000     0.379680000000     0.399294   
C40      C      0.060260000000     0.242650000000     0.382490000000     0.400088   
C41      C      0.286010000000     0.501330000000     0.451800000000     0.401466   
C42      C      0.277530000000     0.502360000000     0.327050000000     0.400083   
C43      C      0.343300000000     0.499320000000     0.386550000000     0.401293   
C44      C      0.220060000000     0.504000000000     0.394670000000     0.401223   
C45      C      0.245700000000     0.241880000000     0.304610000000     0.404105   
C46      C      0.250520000000     0.245980000000     0.429180000000     0.401741   
C47      C      0.186690000000     0.242340000000     0.368320000000     0.39992    
C48      C      0.310420000000     0.245600000000     0.363880000000     0.400041   
C49      C      0.000890000000     0.502360000000     0.697530000000     0.398632   
C50      C      0.005160000000     0.499610000000     0.572210000000     0.3972     
C51      C      0.064500000000     0.500420000000     0.638090000000     0.3993     
C52      C      0.440700000000     0.500860000000     0.632250000000     0.39926    
C53      C      0.972150000000     0.255430000000     0.692920000000     0.402643   
C54      C      0.972950000000     0.252160000000     0.568040000000     0.400817   
C55      C      0.034620000000     0.254240000000     0.631710000000     0.398753   
C56      C      0.410620000000     0.253770000000     0.630270000000     0.399518   
C57      C      0.246750000000     0.498490000000     0.700050000000     0.40168    
C58      C      0.259220000000     0.500060000000     0.575760000000     0.401276   
C59      C      0.191360000000     0.499680000000     0.630890000000     0.400048   
C60      C      0.314540000000     0.499350000000     0.644700000000     0.399357   
C61      C      0.226510000000     0.256960000000     0.676080000000     0.401311   
C62      C      0.221110000000     0.251520000000     0.551400000000     0.40144    
C63      C      0.161320000000     0.253930000000     0.615850000000     0.398561   
C64      C      0.285240000000     0.254240000000     0.611100000000     0.399017   
C65      C      0.334920000000     0.224910000000     0.607320000000    -0.0121586  
C66      C      0.335020000000     0.283470000000     0.607790000000    -0.0119406  
C67      C      0.360800000000     0.224520000000     0.632000000000    -0.011755   
C68      C      0.360940000000     0.283190000000     0.632400000000    -0.0119015  
C69      C      0.084140000000     0.283870000000     0.634660000000    -0.0118848  
C70      C      0.084330000000     0.225400000000     0.637780000000    -0.0118102  
C71      C      0.111480000000     0.282770000000     0.611690000000    -0.0121116  
C72      C      0.111840000000     0.224150000000     0.615020000000    -0.0121625  
C73      C      0.390910000000     0.030080000000     0.629300000000    -0.0117916  
C74      C      0.391260000000     0.471430000000     0.626790000000    -0.012115   
C75      C      0.363760000000     0.028720000000     0.652500000000    -0.0136255  
C76      C      0.364210000000     0.470240000000     0.650110000000    -0.0118352  
C77      C      0.142440000000     0.029360000000     0.622750000000    -0.0134449  
C78      C      0.142020000000     0.470810000000     0.622440000000    -0.0118019  
C79      C      0.113990000000     0.029500000000     0.644280000000    -0.0118021  
C80      C      0.113680000000     0.470780000000     0.644150000000    -0.0119051  
C81      C      0.249020000000     0.218510000000     0.480560000000    -0.0116291  
C82      C      0.250840000000     0.277010000000     0.478450000000    -0.0115763  
C83      C      0.220690000000     0.220200000000     0.502270000000    -0.0117463  
C84      C      0.222380000000     0.278690000000     0.499900000000    -0.0116429  
C85      C      0.289670000000     0.471850000000     0.501900000000    -0.0114025  
C86      C      0.288820000000     0.030220000000     0.502310000000    -0.0116341  
C87      C      0.262870000000     0.471050000000     0.525460000000    -0.011849   
C88      C      0.262010000000     0.029910000000     0.525900000000    -0.0120909  
C89      C      0.997510000000     0.219900000000     0.494340000000    -0.0117923  
C90      C      0.498560000000     0.278480000000     0.492130000000    -0.0119051  
C91      C      0.971420000000     0.221310000000     0.518690000000    -0.0116933  
C92      C      0.472690000000     0.279870000000     0.516760000000    -0.0117568  
C93      C      0.360400000000     0.217050000000     0.361140000000    -0.0112824  
C94      C      0.359610000000     0.275440000000     0.356850000000    -0.0119812  
C95      C      0.386440000000     0.219020000000     0.385300000000    -0.0117617  
C96      C      0.387270000000     0.277440000000     0.379590000000    -0.0123852  
C97      C      0.110220000000     0.270570000000     0.388930000000    -0.0114727  
C98      C      0.109220000000     0.212050000000     0.386930000000    -0.0120258  
C99      C      0.136900000000     0.271070000000     0.365430000000    -0.0115493  
C100     C      0.137350000000     0.212340000000     0.364740000000    -0.0122731  
C101     C      0.005760000000     0.469710000000     0.522080000000    -0.0122573  
C102     C      0.504260000000     0.028300000000     0.521510000000    -0.0134717  
C103     C      0.030170000000     0.470170000000     0.495780000000    -0.0122673  
C104     C      0.529220000000     0.028770000000     0.495900000000    -0.0134762  
C105     C      0.393260000000     0.527030000000     0.392030000000    -0.0115716  
C106     C      0.391870000000     0.468220000000     0.389600000000    -0.0121274  
C107     C      0.421210000000     0.027090000000     0.370220000000    -0.0124125  
C108     C      0.421480000000     0.968600000000     0.369500000000    -0.0114362  
C109     C      0.143690000000     0.473950000000     0.382480000000    -0.0114111  
C110     C      0.142520000000     0.032650000000     0.378560000000    -0.0123832  
C111     C      0.170780000000     0.476180000000     0.405340000000    -0.0113195  
C112     C      0.171090000000     0.034420000000     0.400060000000    -0.0119966  
C113     C      0.242280000000     0.226820000000     0.754920000000    -0.0109292  
C114     C      0.200340000000     0.267990000000     0.756070000000    -0.0105015  
C115     C      0.253840000000     0.239600000000     0.723540000000    -0.0108047  
C116     C      0.213910000000     0.282640000000     0.726260000000    -0.0105592  
C117     C      0.208490000000     0.488430000000     0.775410000000    -0.0106086  
C118     C      0.246950000000     0.032630000000     0.778350000000    -0.00905178 
C119     C      0.227270000000     0.473720000000     0.748550000000    -0.0110077  
C120     C      0.264790000000     0.019160000000     0.750590000000    -0.0128689  
C121     C      0.264110000000     0.363590000000     0.861860000000    -0.0123931  
C122     C      0.206200000000     0.364290000000     0.869070000000    -0.0116182  
C123     C      0.267180000000     0.390840000000     0.885200000000    -0.0123244  
C124     C      0.209480000000     0.389940000000     0.893700000000    -0.011844   
C125     C      0.201120000000     0.139530000000     0.865380000000    -0.012119   
C126     C      0.259380000000     0.139090000000     0.863070000000    -0.011409   
C127     C      0.202040000000     0.114320000000     0.891050000000    -0.0123186  
C128     C      0.260350000000     0.115590000000     0.889950000000    -0.0116933  
C129     C      0.471940000000     0.295740000000     0.767100000000    -0.0101203  
C130     C      0.013170000000     0.253900000000     0.764750000000    -0.0106392  
C131     C      0.452900000000     0.278150000000     0.742490000000    -0.0102802  
C132     C      0.992580000000     0.234710000000     0.742660000000    -0.0111184  
C133     C      0.469770000000     0.498150000000     0.776810000000    -0.0110382  
C134     C      0.012340000000     0.038560000000     0.774610000000    -0.0110068  
C135     C      0.484580000000     0.480980000000     0.748870000000    -0.0108905  
C136     C      0.025530000000     0.022890000000     0.745240000000    -0.0113748  
C137     C      0.028530000000     0.382260000000     0.873240000000    -0.0119198  
C138     C      0.470260000000     0.382990000000     0.879020000000    -0.0110761  
C139     C      0.030820000000     0.409910000000     0.895980000000    -0.0115436  
C140     C      0.473030000000     0.409080000000     0.903060000000    -0.010993   
C141     C      0.464500000000     0.160110000000     0.866870000000    -0.0117013  
C142     C      0.022730000000     0.159380000000     0.865920000000    -0.0107696  
C143     C      0.464480000000     0.131750000000     0.888880000000    -0.012039   
C144     C      0.023020000000     0.132760000000     0.889500000000    -0.0112716  
C145     C      0.262960000000     0.220060000000     0.254020000000    -0.0111465  
C146     C      0.221810000000     0.261990000000     0.256220000000    -0.00947901 
C147     C      0.281460000000     0.239800000000     0.230420000000    -0.0112443  
C148     C      0.239590000000     0.281010000000     0.231990000000    -0.00942485 
C149     C      0.214310000000     0.263250000000     0.009850000000    -0.012471   
C150     C      0.272540000000     0.264420000000     0.005280000000    -0.0132262  
C151     C      0.212560000000     0.242190000000     0.980890000000    -0.0111765  
C152     C      0.270710000000     0.243390000000     0.976310000000    -0.011027   
C153     C      0.279750000000     0.037400000000     0.248380000000    -0.0109596  
C154     C      0.235850000000     0.498860000000     0.253990000000    -0.0111837  
C155     C      0.296540000000     0.021940000000     0.276100000000    -0.0113643  
C156     C      0.254490000000     0.480890000000     0.278730000000    -0.0106763  
C157     C      0.271430000000     0.006700000000     0.998450000000    -0.0128498  
C158     C      0.212960000000     0.506420000000     0.002520000000    -0.0131238  
C159     C      0.273290000000     0.984990000000     0.026870000000    -0.00990194 
C160     C      0.215300000000     0.484760000000     0.030970000000    -0.0111837  
C161     C      0.284220000000     0.370060000000     0.121510000000    -0.01257    
C162     C      0.225810000000     0.370700000000     0.122460000000    -0.0119428  
C163     C      0.284640000000     0.393570000000     0.148870000000    -0.0122342  
C164     C      0.226580000000     0.392420000000     0.150900000000    -0.0113597  
C165     C      0.279150000000     0.146030000000     0.127300000000    -0.0119133  
C166     C      0.221150000000     0.147490000000     0.135260000000    -0.0126103  
C167     C      0.276020000000     0.114350000000     0.111190000000    -0.0119765  
C168     C      0.218580000000     0.114840000000     0.120450000000    -0.0122462  
C169     C      0.493020000000     0.206190000000     0.240010000000    -0.0105281  
C170     C      0.035540000000     0.246560000000     0.241260000000    -0.0110571  
C171     C      0.477990000000     0.221190000000     0.268910000000    -0.0113596  
C172     C      0.018650000000     0.263780000000     0.267770000000    -0.0106534  
C173     C      0.031990000000     0.244180000000     0.014930000000    -0.0128138  
C174     C      0.473650000000     0.243820000000     0.017720000000    -0.013105   
C175     C      0.030580000000     0.269390000000     0.989470000000    -0.0105253  
C176     C      0.472370000000     0.268850000000     0.992030000000    -0.0104328  
C177     C      0.512600000000     0.021540000000     0.270940000000    -0.0102171  
C178     C      0.053320000000     0.479180000000     0.270040000000    -0.010329   
C179     C      0.492050000000     0.001960000000     0.249100000000    -0.0160785  
C180     C      0.034210000000     0.461190000000     0.245740000000    -0.0103144  
C181     C      0.032280000000     0.497670000000     0.021970000000    -0.0126467  
C182     C      0.473830000000     0.497500000000     0.024460000000    -0.0115817  
C183     C      0.031080000000     0.025420000000     0.999370000000    -0.0125829  
C184     C      0.473000000000     0.025250000000     0.001820000000    -0.0152809  
C185     C      0.476900000000     0.347880000000     0.145790000000    -0.0121971  
C186     C      0.035060000000     0.348860000000     0.141240000000    -0.0113219  
C187     C      0.474950000000     0.377250000000     0.125140000000    -0.0122356  
C188     C      0.033000000000     0.376690000000     0.119070000000    -0.0116425  
C189     C      0.481990000000     0.100640000000     0.144900000000    -0.0112524  
C190     C      0.040290000000     0.099730000000     0.144220000000    -0.0122     
C191     C      0.481990000000     0.124920000000     0.118710000000    -0.0115602  
C192     C      0.040280000000     0.125680000000     0.119290000000    -0.012121   
C193     C      0.510590000000     0.483290000000     0.197730000000     0.401415   
C194     C      0.005160000000     0.993800000000     0.073290000000     0.401079   
C195     C      0.010010000000     0.550260000000     0.140800000000     0.400595   
C196     C      0.005540000000     0.926390000000     0.129690000000     0.400242   
C197     C      0.005220000000     0.742730000000     0.066570000000     0.398635   
C198     C      0.511210000000     0.731290000000     0.191140000000     0.400072   
C199     C      0.510130000000     0.675210000000     0.123080000000     0.400319   
C200     C      0.506510000000     0.798990000000     0.135500000000     0.399802   
C201     C      0.255570000000     0.013210000000     0.201610000000     0.39939    
C202     C      0.247670000000     0.995170000000     0.078110000000     0.40071    
C203     C      0.249370000000     0.566500000000     0.129730000000     0.396832   
C204     C      0.254220000000     0.943150000000     0.147620000000     0.398493   
C205     C      0.247350000000     0.758340000000     0.057300000000     0.40009    
C206     C      0.257310000000     0.759090000000     0.181700000000     0.403903   
C207     C      0.250350000000     0.695660000000     0.121820000000     0.396319   
C208     C      0.254120000000     0.820310000000     0.119780000000     0.398657   
C209     C      0.999970000000     0.023920000000     0.950220000000     0.400471   
C210     C      0.994800000000     0.017470000000     0.825310000000     0.398652   
C211     C      0.994980000000     0.582620000000     0.885710000000     0.40236    
C212     C      0.000040000000     0.958900000000     0.892270000000     0.402948   
C213     C      0.999340000000     0.768570000000     0.940400000000     0.398829   
C214     C      0.994430000000     0.773640000000     0.815540000000     0.402645   
C215     C      0.998780000000     0.832940000000     0.879320000000     0.402602   
C216     C      0.994710000000     0.709130000000     0.873890000000     0.402439   
C217     C      0.238840000000     0.002450000000     0.950670000000     0.400221   
C218     C      0.231120000000     0.004690000000     0.826080000000     0.402396   
C219     C      0.236950000000     0.940420000000     0.887430000000     0.398387   
C220     C      0.232560000000     0.564910000000     0.889360000000     0.39957    
C221     C      0.237660000000     0.749440000000     0.928950000000     0.400214   
C222     C      0.227520000000     0.752090000000     0.804410000000     0.401097   
C223     C      0.234480000000     0.813910000000     0.867420000000     0.398508   
C224     C      0.230980000000     0.689380000000     0.865520000000     0.399651   
C225     C      0.029480000000     0.499680000000     0.445420000000     0.397626   
C226     C      0.033830000000     0.500470000000     0.320250000000     0.400923   
C227     C      0.093680000000     0.502260000000     0.384170000000     0.400753   
C228     C      0.470260000000     0.498320000000     0.378770000000     0.401418   
C229     C      0.999570000000     0.742530000000     0.317950000000     0.400006   
C230     C      0.997460000000     0.747270000000     0.442950000000     0.400431   
C231     C      0.436500000000     0.746930000000     0.379680000000     0.399511   
C232     C      0.060260000000     0.742650000000     0.382490000000     0.400072   
C233     C      0.286010000000     0.001330000000     0.451800000000     0.398722   
C234     C      0.277530000000     0.002360000000     0.327050000000     0.397118   
C235     C      0.343300000000     0.999320000000     0.386550000000     0.404337   
C236     C      0.220060000000     0.004000000000     0.394670000000     0.398309   
C237     C      0.245700000000     0.741880000000     0.304610000000     0.404071   
C238     C      0.250520000000     0.745990000000     0.429180000000     0.401701   
C239     C      0.186690000000     0.742340000000     0.368320000000     0.399888   
C240     C      0.310420000000     0.745600000000     0.363880000000     0.399781   
C241     C      0.000890000000     0.002360000000     0.697530000000     0.395762   
C242     C      0.005160000000     0.999610000000     0.572210000000     0.400228   
C243     C      0.064500000000     0.000420000000     0.638090000000     0.396189   
C244     C      0.440700000000     0.000860000000     0.632250000000     0.396344   
C245     C      0.972150000000     0.755430000000     0.692920000000     0.402397   
C246     C      0.972950000000     0.752160000000     0.568040000000     0.400804   
C247     C      0.034620000000     0.754240000000     0.631710000000     0.398741   
C248     C      0.410620000000     0.753770000000     0.630270000000     0.399504   
C249     C      0.246750000000     0.998500000000     0.700050000000     0.404663   
C250     C      0.259220000000     0.000060000000     0.575760000000     0.39831    
C251     C      0.191360000000     0.999680000000     0.630890000000     0.403054   
C252     C      0.314540000000     0.999350000000     0.644700000000     0.402614   
C253     C      0.226510000000     0.756960000000     0.676080000000     0.401541   
C254     C      0.221110000000     0.751520000000     0.551400000000     0.401437   
C255     C      0.161320000000     0.753930000000     0.615850000000     0.398556   
C256     C      0.285240000000     0.754240000000     0.611100000000     0.399248   
C257     C      0.334920000000     0.724910000000     0.607320000000    -0.0121518  
C258     C      0.335020000000     0.783470000000     0.607790000000    -0.0119361  
C259     C      0.360800000000     0.724520000000     0.632000000000    -0.011766   
C260     C      0.360940000000     0.783190000000     0.632400000000    -0.0119132  
C261     C      0.084140000000     0.783870000000     0.634660000000    -0.0118927  
C262     C      0.084330000000     0.725400000000     0.637780000000    -0.0118116  
C263     C      0.111480000000     0.782770000000     0.611690000000    -0.0121181  
C264     C      0.111840000000     0.724150000000     0.615020000000    -0.0121844  
C265     C      0.390910000000     0.530080000000     0.629300000000    -0.0119563  
C266     C      0.391260000000     0.971440000000     0.626790000000    -0.010228   
C267     C      0.363760000000     0.528720000000     0.652500000000    -0.0118692  
C268     C      0.364210000000     0.970240000000     0.650110000000    -0.0120221  
C269     C      0.142440000000     0.529360000000     0.622750000000    -0.011678   
C270     C      0.142020000000     0.970800000000     0.622440000000    -0.0120758  
C271     C      0.113990000000     0.529500000000     0.644280000000    -0.0119565  
C272     C      0.113680000000     0.970780000000     0.644150000000    -0.0101009  
C273     C      0.249020000000     0.718510000000     0.480560000000    -0.0116913  
C274     C      0.250840000000     0.777010000000     0.478450000000    -0.0115398  
C275     C      0.220690000000     0.720200000000     0.502270000000    -0.0117351  
C276     C      0.222380000000     0.778690000000     0.499900000000    -0.0116354  
C277     C      0.289670000000     0.971850000000     0.501900000000    -0.0099859  
C278     C      0.288820000000     0.530220000000     0.502310000000    -0.0114102  
C279     C      0.262870000000     0.971050000000     0.525460000000    -0.0105356  
C280     C      0.262010000000     0.529910000000     0.525900000000    -0.0119303  
C281     C      0.997510000000     0.719900000000     0.494340000000    -0.0117901  
C282     C      0.498560000000     0.778480000000     0.492130000000    -0.0119039  
C283     C      0.971420000000     0.721310000000     0.518690000000    -0.0117137  
C284     C      0.472690000000     0.779870000000     0.516760000000    -0.0117679  
C285     C      0.360400000000     0.717050000000     0.361140000000    -0.011236   
C286     C      0.359610000000     0.775440000000     0.356850000000    -0.0120699  
C287     C      0.386440000000     0.719020000000     0.385300000000    -0.011775   
C288     C      0.387270000000     0.777440000000     0.379590000000    -0.0123571  
C289     C      0.110220000000     0.770570000000     0.388930000000    -0.0114742  
C290     C      0.109220000000     0.712060000000     0.386930000000    -0.0119089  
C291     C      0.136900000000     0.771070000000     0.365430000000    -0.0115624  
C292     C      0.137350000000     0.712340000000     0.364740000000    -0.0123326  
C293     C      0.005760000000     0.969710000000     0.522080000000    -0.0120664  
C294     C      0.504260000000     0.528300000000     0.521510000000    -0.0120974  
C295     C      0.030170000000     0.970170000000     0.495780000000    -0.01201    
C296     C      0.529220000000     0.528770000000     0.495900000000    -0.0120761  
C297     C      0.393260000000     0.027030000000     0.392030000000    -0.0128586  
C298     C      0.391870000000     0.968220000000     0.389600000000    -0.0119733  
C299     C      0.421210000000     0.527090000000     0.370220000000    -0.0109714  
C300     C      0.421480000000     0.468590000000     0.369500000000    -0.0118021  
C301     C      0.143690000000     0.973950000000     0.382480000000    -0.010043   
C302     C      0.142520000000     0.532650000000     0.378560000000    -0.0121526  
C303     C      0.170780000000     0.976180000000     0.405340000000    -0.00988736 
C304     C      0.171090000000     0.534420000000     0.400060000000    -0.0117727  
C305     C      0.242280000000     0.726820000000     0.754920000000    -0.0109761  
C306     C      0.200340000000     0.767990000000     0.756070000000    -0.0105099  
C307     C      0.253840000000     0.739600000000     0.723540000000    -0.0107895  
C308     C      0.213910000000     0.782640000000     0.726260000000    -0.0105561  
C309     C      0.208490000000     0.988420000000     0.775410000000    -0.00576257 
C310     C      0.246950000000     0.532630000000     0.778350000000    -0.0094617  
C311     C      0.227270000000     0.973720000000     0.748550000000    -0.011924   
C312     C      0.264790000000     0.519160000000     0.750590000000    -0.0110495  
C313     C      0.264110000000     0.863590000000     0.861860000000    -0.0123807  
C314     C      0.206200000000     0.864290000000     0.869070000000    -0.0116035  
C315     C      0.267180000000     0.890840000000     0.885200000000    -0.0123576  
C316     C      0.209480000000     0.889940000000     0.893700000000    -0.0118901  
C317     C      0.201120000000     0.639540000000     0.865380000000    -0.0121096  
C318     C      0.259380000000     0.639090000000     0.863070000000    -0.0114129  
C319     C      0.202040000000     0.614320000000     0.891050000000    -0.0123378  
C320     C      0.260350000000     0.615590000000     0.889950000000    -0.0117074  
C321     C      0.471940000000     0.795740000000     0.767100000000    -0.0101467  
C322     C      0.013170000000     0.753900000000     0.764750000000    -0.0106939  
C323     C      0.452900000000     0.778150000000     0.742490000000    -0.0102389  
C324     C      0.992580000000     0.734720000000     0.742660000000    -0.0110568  
C325     C      0.469770000000     0.998150000000     0.776810000000    -0.00647977 
C326     C      0.012340000000     0.538560000000     0.774610000000    -0.010974   
C327     C      0.484580000000     0.980980000000     0.748870000000    -0.010301   
C328     C      0.025530000000     0.522890000000     0.745240000000    -0.0111218  
C329     C      0.028530000000     0.882260000000     0.873240000000    -0.0119361  
C330     C      0.470260000000     0.882990000000     0.879020000000    -0.0110729  
C331     C      0.030820000000     0.909910000000     0.895980000000    -0.0115547  
C332     C      0.473030000000     0.909080000000     0.903060000000    -0.0110109  
C333     C      0.464500000000     0.660110000000     0.866870000000    -0.0117038  
C334     C      0.022730000000     0.659380000000     0.865920000000    -0.0107753  
C335     C      0.464480000000     0.631750000000     0.888880000000    -0.0120471  
C336     C      0.023020000000     0.632760000000     0.889500000000    -0.0112809  
C337     C      0.262960000000     0.720060000000     0.254020000000    -0.0111354  
C338     C      0.221810000000     0.761990000000     0.256220000000    -0.00953464 
C339     C      0.281460000000     0.739810000000     0.230420000000    -0.0112069  
C340     C      0.239590000000     0.781010000000     0.231990000000    -0.00941883 
C341     C      0.214310000000     0.763250000000     0.009850000000    -0.012488   
C342     C      0.272540000000     0.764420000000     0.005280000000    -0.0132487  
C343     C      0.212560000000     0.742190000000     0.980890000000    -0.0111731  
C344     C      0.270710000000     0.743390000000     0.976310000000    -0.011023   
C345     C      0.279750000000     0.537400000000     0.248380000000    -0.0109321  
C346     C      0.235850000000     0.998860000000     0.253990000000    -0.00662629 
C347     C      0.296540000000     0.521940000000     0.276100000000    -0.0111073  
C348     C      0.254490000000     0.980890000000     0.278730000000    -0.0101001  
C349     C      0.271430000000     0.506700000000     0.998450000000    -0.0104116  
C350     C      0.212960000000     0.006420000000     0.002520000000    -0.0155443  
C351     C      0.273290000000     0.484990000000     0.026870000000    -0.0123245  
C352     C      0.215300000000     0.984760000000     0.030970000000    -0.00876885 
C353     C      0.284220000000     0.870060000000     0.121510000000    -0.0125728  
C354     C      0.225810000000     0.870700000000     0.122460000000    -0.0119428  
C355     C      0.284640000000     0.893570000000     0.148870000000    -0.0122695  
C356     C      0.226580000000     0.892420000000     0.150900000000    -0.0113924  
C357     C      0.279150000000     0.646030000000     0.127300000000    -0.0119164  
C358     C      0.221150000000     0.647490000000     0.135260000000    -0.0126128  
C359     C      0.276020000000     0.614350000000     0.111190000000    -0.011974   
C360     C      0.218580000000     0.614840000000     0.120450000000    -0.0122441  
C361     C      0.493020000000     0.706190000000     0.240010000000    -0.0105429  
C362     C      0.035540000000     0.746560000000     0.241260000000    -0.0110769  
C363     C      0.477990000000     0.721190000000     0.268910000000    -0.0113498  
C364     C      0.018650000000     0.763780000000     0.267770000000    -0.0106168  
C365     C      0.031990000000     0.744180000000     0.014930000000    -0.0128335  
C366     C      0.473650000000     0.743820000000     0.017720000000    -0.0131118  
C367     C      0.030580000000     0.769380000000     0.989470000000    -0.0104928  
C368     C      0.472370000000     0.768850000000     0.992030000000    -0.0104386  
C369     C      0.512600000000     0.521540000000     0.270940000000    -0.0111808  
C370     C      0.053320000000     0.979190000000     0.270040000000    -0.0084986  
C371     C      0.492050000000     0.501960000000     0.249100000000    -0.0111975  
C372     C      0.034210000000     0.961190000000     0.245740000000    -0.0106756  
C373     C      0.032280000000     0.997670000000     0.021970000000    -0.0101704  
C374     C      0.473830000000     0.997500000000     0.024460000000    -0.0091377  
C375     C      0.031080000000     0.525420000000     0.999370000000    -0.0101385  
C376     C      0.473000000000     0.525250000000     0.001820000000    -0.0128519  
C377     C      0.476900000000     0.847880000000     0.145790000000    -0.012195   
C378     C      0.035060000000     0.848860000000     0.141240000000    -0.0113223  
C379     C      0.474950000000     0.877250000000     0.125140000000    -0.012248   
C380     C      0.033000000000     0.876690000000     0.119070000000    -0.0116534  
C381     C      0.481990000000     0.600640000000     0.144900000000    -0.0112541  
C382     C      0.040290000000     0.599730000000     0.144220000000    -0.0122059  
C383     C      0.481990000000     0.624920000000     0.118710000000    -0.0115558  
C384     C      0.040280000000     0.625680000000     0.119290000000    -0.0121094  
C385     C      0.010590000000     0.983290000000     0.197730000000     0.401771   
C386     C      0.505160000000     0.493800000000     0.073290000000     0.400491   
C387     C      0.510010000000     0.050260000000     0.140800000000     0.400512   
C388     C      0.505540000000     0.426390000000     0.129690000000     0.399999   
C389     C      0.505220000000     0.242730000000     0.066570000000     0.398509   
C390     C      0.011210000000     0.231290000000     0.191140000000     0.400442   
C391     C      0.010130000000     0.175220000000     0.123080000000     0.400328   
C392     C      0.006510000000     0.298990000000     0.135500000000     0.399912   
C393     C      0.755570000000     0.513210000000     0.201610000000     0.39975    
C394     C      0.747670000000     0.495170000000     0.078110000000     0.400893   
C395     C      0.749370000000     0.066500000000     0.129730000000     0.396497   
C396     C      0.754220000000     0.443150000000     0.147620000000     0.398945   
C397     C      0.747350000000     0.258340000000     0.057300000000     0.400085   
C398     C      0.757320000000     0.259090000000     0.181700000000     0.403896   
C399     C      0.750350000000     0.195660000000     0.121820000000     0.396319   
C400     C      0.754120000000     0.320310000000     0.119780000000     0.398737   
C401     C      0.499970000000     0.523920000000     0.950220000000     0.40115    
C402     C      0.494800000000     0.517470000000     0.825310000000     0.399013   
C403     C      0.494980000000     0.082620000000     0.885710000000     0.40236    
C404     C      0.500040000000     0.458900000000     0.892270000000     0.403385   
C405     C      0.499340000000     0.268570000000     0.940400000000     0.39903    
C406     C      0.494430000000     0.273640000000     0.815540000000     0.402751   
C407     C      0.498790000000     0.332940000000     0.879320000000     0.4029     
C408     C      0.494710000000     0.209130000000     0.873890000000     0.402548   
C409     C      0.738840000000     0.502450000000     0.950670000000     0.400908   
C410     C      0.731110000000     0.504690000000     0.826080000000     0.402629   
C411     C      0.736950000000     0.440410000000     0.887430000000     0.398457   
C412     C      0.732560000000     0.064910000000     0.889360000000     0.399757   
C413     C      0.737660000000     0.249430000000     0.928950000000     0.400217   
C414     C      0.727520000000     0.252090000000     0.804410000000     0.401107   
C415     C      0.734480000000     0.313910000000     0.867420000000     0.398508   
C416     C      0.730980000000     0.189380000000     0.865520000000     0.399535   
C417     C      0.529480000000     0.999690000000     0.445420000000     0.400623   
C418     C      0.533830000000     0.000470000000     0.320250000000     0.397976   
C419     C      0.593670000000     0.002260000000     0.384170000000     0.397911   
C420     C      0.970260000000     0.998320000000     0.378770000000     0.404454   
C421     C      0.499570000000     0.242530000000     0.317950000000     0.399907   
C422     C      0.497460000000     0.247270000000     0.442950000000     0.400231   
C423     C      0.936500000000     0.246930000000     0.379680000000     0.399407   
C424     C      0.560250000000     0.242650000000     0.382490000000     0.400195   
C425     C      0.786010000000     0.501330000000     0.451800000000     0.401466   
C426     C      0.777530000000     0.502360000000     0.327050000000     0.400085   
C427     C      0.843300000000     0.499320000000     0.386550000000     0.401292   
C428     C      0.720060000000     0.504000000000     0.394670000000     0.401224   
C429     C      0.745700000000     0.241880000000     0.304610000000     0.404065   
C430     C      0.750510000000     0.245980000000     0.429180000000     0.401744   
C431     C      0.686690000000     0.242340000000     0.368320000000     0.399917   
C432     C      0.810420000000     0.245600000000     0.363880000000     0.400045   
C433     C      0.500890000000     0.502360000000     0.697530000000     0.398461   
C434     C      0.505160000000     0.499610000000     0.572210000000     0.397168   
C435     C      0.564500000000     0.500420000000     0.638090000000     0.399289   
C436     C      0.940700000000     0.500860000000     0.632250000000     0.399159   
C437     C      0.472150000000     0.255430000000     0.692920000000     0.402666   
C438     C      0.472950000000     0.252160000000     0.568040000000     0.400834   
C439     C      0.534620000000     0.254240000000     0.631710000000     0.39874    
C440     C      0.910620000000     0.253770000000     0.630270000000     0.399371   
C441     C      0.746760000000     0.498490000000     0.700050000000     0.401691   
C442     C      0.759220000000     0.500060000000     0.575760000000     0.401276   
C443     C      0.691360000000     0.499680000000     0.630890000000     0.400051   
C444     C      0.814540000000     0.499350000000     0.644700000000     0.399354   
C445     C      0.726510000000     0.256960000000     0.676080000000     0.401311   
C446     C      0.721110000000     0.251520000000     0.551400000000     0.40144    
C447     C      0.661320000000     0.253930000000     0.615850000000     0.398561   
C448     C      0.785240000000     0.254240000000     0.611100000000     0.399017   
C449     C      0.834920000000     0.224910000000     0.607320000000    -0.0121582  
C450     C      0.835020000000     0.283470000000     0.607790000000    -0.0119406  
C451     C      0.860800000000     0.224520000000     0.632000000000    -0.0117537  
C452     C      0.860940000000     0.283190000000     0.632400000000    -0.0118991  
C453     C      0.584140000000     0.283870000000     0.634660000000    -0.011869   
C454     C      0.584330000000     0.225400000000     0.637780000000    -0.0118113  
C455     C      0.611480000000     0.282770000000     0.611690000000    -0.0121192  
C456     C      0.611840000000     0.224150000000     0.615020000000    -0.0121625  
C457     C      0.890910000000     0.030080000000     0.629300000000    -0.0117861  
C458     C      0.891260000000     0.471430000000     0.626790000000    -0.0121162  
C459     C      0.863750000000     0.028720000000     0.652500000000    -0.0136113  
C460     C      0.864210000000     0.470240000000     0.650110000000    -0.0118234  
C461     C      0.642440000000     0.029360000000     0.622750000000    -0.0134491  
C462     C      0.642020000000     0.470810000000     0.622440000000    -0.0118011  
C463     C      0.613990000000     0.029500000000     0.644280000000    -0.0118014  
C464     C      0.613680000000     0.470780000000     0.644150000000    -0.0119048  
C465     C      0.749020000000     0.218510000000     0.480560000000    -0.0116312  
C466     C      0.750840000000     0.277010000000     0.478450000000    -0.0115777  
C467     C      0.720690000000     0.220200000000     0.502270000000    -0.0117466  
C468     C      0.722380000000     0.278690000000     0.499900000000    -0.0116436  
C469     C      0.789670000000     0.471850000000     0.501900000000    -0.011402   
C470     C      0.788820000000     0.030220000000     0.502310000000    -0.0116341  
C471     C      0.762870000000     0.471050000000     0.525460000000    -0.011849   
C472     C      0.762010000000     0.029910000000     0.525900000000    -0.0120912  
C473     C      0.497510000000     0.219900000000     0.494340000000    -0.0116784  
C474     C      0.998560000000     0.278480000000     0.492130000000    -0.0120169  
C475     C      0.471420000000     0.221310000000     0.518690000000    -0.0117222  
C476     C      0.972690000000     0.279870000000     0.516760000000    -0.0117281  
C477     C      0.860400000000     0.217050000000     0.361140000000    -0.0112893  
C478     C      0.859610000000     0.275440000000     0.356850000000    -0.0119812  
C479     C      0.886440000000     0.219020000000     0.385300000000    -0.0117483  
C480     C      0.887270000000     0.277440000000     0.379590000000    -0.0123869  
C481     C      0.610220000000     0.270570000000     0.388930000000    -0.0114804  
C482     C      0.609220000000     0.212050000000     0.386930000000    -0.0120374  
C483     C      0.636900000000     0.271070000000     0.365430000000    -0.0115597  
C484     C      0.637350000000     0.212340000000     0.364740000000    -0.0122715  
C485     C      0.505760000000     0.469710000000     0.522080000000    -0.0123567  
C486     C      0.004260000000     0.028300000000     0.521510000000    -0.0133187  
C487     C      0.530170000000     0.470170000000     0.495780000000    -0.0122492  
C488     C      0.029220000000     0.028770000000     0.495900000000    -0.0135032  
C489     C      0.893260000000     0.527030000000     0.392030000000    -0.0115712  
C490     C      0.891870000000     0.468220000000     0.389600000000    -0.0121183  
C491     C      0.921210000000     0.027090000000     0.370220000000    -0.0124124  
C492     C      0.921470000000     0.968600000000     0.369500000000    -0.0114445  
C493     C      0.643690000000     0.473950000000     0.382480000000    -0.011423   
C494     C      0.642520000000     0.032650000000     0.378560000000    -0.0123967  
C495     C      0.670780000000     0.476180000000     0.405340000000    -0.0113167  
C496     C      0.671090000000     0.034420000000     0.400060000000    -0.011994   
C497     C      0.742290000000     0.226820000000     0.754920000000    -0.0109443  
C498     C      0.700330000000     0.267990000000     0.756070000000    -0.0106467  
C499     C      0.753840000000     0.239600000000     0.723540000000    -0.0107888  
C500     C      0.713900000000     0.282640000000     0.726260000000    -0.010543   
C501     C      0.708490000000     0.488430000000     0.775410000000    -0.0106152  
C502     C      0.746950000000     0.032630000000     0.778350000000    -0.00903788 
C503     C      0.727270000000     0.473720000000     0.748550000000    -0.0109971  
C504     C      0.764790000000     0.019160000000     0.750590000000    -0.012884   
C505     C      0.764110000000     0.363590000000     0.861860000000    -0.0123931  
C506     C      0.706200000000     0.364290000000     0.869070000000    -0.0116182  
C507     C      0.767180000000     0.390840000000     0.885200000000    -0.0123237  
C508     C      0.709480000000     0.389940000000     0.893700000000    -0.011843   
C509     C      0.701120000000     0.139530000000     0.865380000000    -0.0121431  
C510     C      0.759380000000     0.139090000000     0.863070000000    -0.0113907  
C511     C      0.702040000000     0.114320000000     0.891050000000    -0.0122433  
C512     C      0.760350000000     0.115590000000     0.889950000000    -0.0117471  
C513     C      0.971940000000     0.295740000000     0.767100000000    -0.0101226  
C514     C      0.513170000000     0.253900000000     0.764750000000    -0.0108743  
C515     C      0.952900000000     0.278150000000     0.742490000000    -0.0103296  
C516     C      0.492570000000     0.234710000000     0.742660000000    -0.0108846  
C517     C      0.969770000000     0.498150000000     0.776810000000    -0.0109935  
C518     C      0.512330000000     0.038560000000     0.774610000000    -0.0111752  
C519     C      0.984580000000     0.480980000000     0.748870000000    -0.011093   
C520     C      0.525530000000     0.022890000000     0.745240000000    -0.0113551  
C521     C      0.528530000000     0.382260000000     0.873240000000    -0.012016   
C522     C      0.970260000000     0.382990000000     0.879020000000    -0.0110733  
C523     C      0.530820000000     0.409910000000     0.895980000000    -0.0115257  
C524     C      0.973030000000     0.409080000000     0.903060000000    -0.0110801  
C525     C      0.964510000000     0.160110000000     0.866870000000    -0.0116581  
C526     C      0.522730000000     0.159380000000     0.865920000000    -0.0109092  
C527     C      0.964480000000     0.131750000000     0.888880000000    -0.0120635  
C528     C      0.523020000000     0.132760000000     0.889500000000    -0.0113157  
C529     C      0.762970000000     0.220060000000     0.254020000000    -0.0112059  
C530     C      0.721810000000     0.261990000000     0.256220000000    -0.00948605 
C531     C      0.781460000000     0.239800000000     0.230420000000    -0.0112212  
C532     C      0.739590000000     0.281010000000     0.231990000000    -0.00941149 
C533     C      0.714310000000     0.263250000000     0.009850000000    -0.0124902  
C534     C      0.772540000000     0.264420000000     0.005280000000    -0.013276   
C535     C      0.712570000000     0.242190000000     0.980890000000    -0.0111318  
C536     C      0.770700000000     0.243390000000     0.976310000000    -0.0108496  
C537     C      0.779750000000     0.037400000000     0.248380000000    -0.0109604  
C538     C      0.735850000000     0.498860000000     0.253990000000    -0.0111954  
C539     C      0.796540000000     0.021940000000     0.276100000000    -0.0113637  
C540     C      0.754490000000     0.480890000000     0.278730000000    -0.010645   
C541     C      0.771430000000     0.006700000000     0.998450000000    -0.0128686  
C542     C      0.712960000000     0.506420000000     0.002520000000    -0.013087   
C543     C      0.773290000000     0.984990000000     0.026870000000    -0.00989643 
C544     C      0.715300000000     0.484760000000     0.030970000000    -0.0111941  
C545     C      0.784220000000     0.370060000000     0.121510000000    -0.0125522  
C546     C      0.725810000000     0.370700000000     0.122460000000    -0.0119645  
C547     C      0.784640000000     0.393570000000     0.148870000000    -0.0122861  
C548     C      0.726580000000     0.392420000000     0.150900000000    -0.0112917  
C549     C      0.779150000000     0.146030000000     0.127300000000    -0.0119116  
C550     C      0.721150000000     0.147490000000     0.135260000000    -0.0126101  
C551     C      0.776020000000     0.114350000000     0.111190000000    -0.0119816  
C552     C      0.718580000000     0.114840000000     0.120450000000    -0.0122468  
C553     C      0.993020000000     0.206190000000     0.240010000000    -0.0106957  
C554     C      0.535540000000     0.246560000000     0.241260000000    -0.0110587  
C555     C      0.977990000000     0.221190000000     0.268910000000    -0.0113026  
C556     C      0.518650000000     0.263780000000     0.267770000000    -0.0107192  
C557     C      0.531990000000     0.244180000000     0.014930000000    -0.0128175  
C558     C      0.973650000000     0.243820000000     0.017720000000    -0.0130275  
C559     C      0.530580000000     0.269390000000     0.989470000000    -0.0105465  
C560     C      0.972360000000     0.268850000000     0.992030000000    -0.010687   
C561     C      0.012600000000     0.021540000000     0.270940000000    -0.00999233 
C562     C      0.553320000000     0.479180000000     0.270040000000    -0.0103428  
C563     C      0.992050000000     0.001960000000     0.249100000000    -0.0162179  
C564     C      0.534210000000     0.461190000000     0.245740000000    -0.0103118  
C565     C      0.532280000000     0.497670000000     0.021970000000    -0.0126451  
C566     C      0.973830000000     0.497500000000     0.024460000000    -0.0116692  
C567     C      0.531080000000     0.025420000000     0.999370000000    -0.0126089  
C568     C      0.973000000000     0.025250000000     0.001820000000    -0.0153155  
C569     C      0.976900000000     0.347880000000     0.145790000000    -0.0122655  
C570     C      0.535060000000     0.348860000000     0.141240000000    -0.0113529  
C571     C      0.974950000000     0.377250000000     0.125140000000    -0.0122178  
C572     C      0.533000000000     0.376690000000     0.119070000000    -0.0115851  
C573     C      0.981990000000     0.100640000000     0.144900000000    -0.0112826  
C574     C      0.540290000000     0.099730000000     0.144220000000    -0.0122217  
C575     C      0.981990000000     0.124920000000     0.118710000000    -0.0116223  
C576     C      0.540280000000     0.125680000000     0.119290000000    -0.0121186  
C577     C      0.010590000000     0.483290000000     0.197730000000     0.401539   
C578     C      0.505160000000     0.993800000000     0.073290000000     0.400961   
C579     C      0.510010000000     0.550260000000     0.140800000000     0.40023    
C580     C      0.505540000000     0.926390000000     0.129690000000     0.400122   
C581     C      0.505220000000     0.742730000000     0.066570000000     0.39851    
C582     C      0.011210000000     0.731290000000     0.191140000000     0.400427   
C583     C      0.010130000000     0.675210000000     0.123080000000     0.400201   
C584     C      0.006510000000     0.798990000000     0.135500000000     0.399925   
C585     C      0.755570000000     0.013210000000     0.201610000000     0.399389   
C586     C      0.747670000000     0.995170000000     0.078110000000     0.40071    
C587     C      0.749370000000     0.566500000000     0.129730000000     0.396832   
C588     C      0.754220000000     0.943150000000     0.147620000000     0.398497   
C589     C      0.747350000000     0.758340000000     0.057300000000     0.400089   
C590     C      0.757320000000     0.759090000000     0.181700000000     0.403897   
C591     C      0.750350000000     0.695660000000     0.121820000000     0.39632    
C592     C      0.754120000000     0.820310000000     0.119780000000     0.398658   
C593     C      0.499970000000     0.023920000000     0.950220000000     0.40069    
C594     C      0.494800000000     0.017470000000     0.825310000000     0.398769   
C595     C      0.494980000000     0.582620000000     0.885710000000     0.402475   
C596     C      0.500040000000     0.958900000000     0.892270000000     0.403038   
C597     C      0.499340000000     0.768570000000     0.940400000000     0.399033   
C598     C      0.494430000000     0.773640000000     0.815540000000     0.402752   
C599     C      0.498790000000     0.832940000000     0.879320000000     0.402704   
C600     C      0.494710000000     0.709130000000     0.873890000000     0.402545   
C601     C      0.738840000000     0.002450000000     0.950670000000     0.400465   
C602     C      0.731110000000     0.004690000000     0.826080000000     0.402393   
C603     C      0.736950000000     0.940420000000     0.887430000000     0.398391   
C604     C      0.732560000000     0.564910000000     0.889360000000     0.39981    
C605     C      0.737660000000     0.749440000000     0.928950000000     0.400211   
C606     C      0.727520000000     0.752090000000     0.804410000000     0.401102   
C607     C      0.734480000000     0.813910000000     0.867420000000     0.398509   
C608     C      0.730980000000     0.689380000000     0.865520000000     0.399651   
C609     C      0.529480000000     0.499680000000     0.445420000000     0.397604   
C610     C      0.533830000000     0.500470000000     0.320250000000     0.400896   
C611     C      0.593670000000     0.502260000000     0.384170000000     0.400842   
C612     C      0.970260000000     0.498320000000     0.378770000000     0.401426   
C613     C      0.499570000000     0.742530000000     0.317950000000     0.400121   
C614     C      0.497460000000     0.747270000000     0.442950000000     0.400445   
C615     C      0.936500000000     0.746930000000     0.379680000000     0.399624   
C616     C      0.560250000000     0.742650000000     0.382490000000     0.400179   
C617     C      0.786010000000     0.001330000000     0.451800000000     0.398717   
C618     C      0.777530000000     0.002360000000     0.327050000000     0.397116   
C619     C      0.843300000000     0.999320000000     0.386550000000     0.40434    
C620     C      0.720060000000     0.004000000000     0.394670000000     0.398304   
C621     C      0.745700000000     0.741880000000     0.304610000000     0.404032   
C622     C      0.750510000000     0.745990000000     0.429180000000     0.401705   
C623     C      0.686690000000     0.742340000000     0.368320000000     0.399885   
C624     C      0.810420000000     0.745600000000     0.363880000000     0.399785   
C625     C      0.500890000000     0.002360000000     0.697530000000     0.395581   
C626     C      0.505160000000     0.999610000000     0.572210000000     0.400212   
C627     C      0.564500000000     0.000420000000     0.638090000000     0.396166   
C628     C      0.940700000000     0.000860000000     0.632250000000     0.396242   
C629     C      0.472150000000     0.755430000000     0.692920000000     0.402419   
C630     C      0.472950000000     0.752160000000     0.568040000000     0.40082    
C631     C      0.534620000000     0.754240000000     0.631710000000     0.398728   
C632     C      0.910620000000     0.753770000000     0.630270000000     0.399358   
C633     C      0.746760000000     0.998500000000     0.700050000000     0.404679   
C634     C      0.759220000000     0.000060000000     0.575760000000     0.398305   
C635     C      0.691360000000     0.999680000000     0.630890000000     0.403063   
C636     C      0.814540000000     0.999350000000     0.644700000000     0.402615   
C637     C      0.726510000000     0.756960000000     0.676080000000     0.401542   
C638     C      0.721110000000     0.751520000000     0.551400000000     0.401437   
C639     C      0.661320000000     0.753930000000     0.615850000000     0.398556   
C640     C      0.785240000000     0.754240000000     0.611100000000     0.399249   
C641     C      0.834920000000     0.724910000000     0.607320000000    -0.0121514  
C642     C      0.835020000000     0.783470000000     0.607790000000    -0.0119361  
C643     C      0.860800000000     0.724520000000     0.632000000000    -0.0117648  
C644     C      0.860940000000     0.783190000000     0.632400000000    -0.0119109  
C645     C      0.584140000000     0.783870000000     0.634660000000    -0.0118769  
C646     C      0.584330000000     0.725400000000     0.637780000000    -0.0118127  
C647     C      0.611480000000     0.782770000000     0.611690000000    -0.0121257  
C648     C      0.611840000000     0.724150000000     0.615020000000    -0.0121844  
C649     C      0.890910000000     0.530080000000     0.629300000000    -0.0119513  
C650     C      0.891260000000     0.971440000000     0.626790000000    -0.010228   
C651     C      0.863750000000     0.528720000000     0.652500000000    -0.0118528  
C652     C      0.864210000000     0.970240000000     0.650110000000    -0.0120105  
C653     C      0.642440000000     0.529360000000     0.622750000000    -0.0116772  
C654     C      0.642020000000     0.970800000000     0.622440000000    -0.0120757  
C655     C      0.613990000000     0.529500000000     0.644280000000    -0.011956   
C656     C      0.613680000000     0.970780000000     0.644150000000    -0.0100945  
C657     C      0.749020000000     0.718510000000     0.480560000000    -0.0116934  
C658     C      0.750840000000     0.777010000000     0.478450000000    -0.0115411  
C659     C      0.720690000000     0.720200000000     0.502270000000    -0.0117355  
C660     C      0.722380000000     0.778690000000     0.499900000000    -0.0116361  
C661     C      0.789670000000     0.971850000000     0.501900000000    -0.00998367 
C662     C      0.788820000000     0.530220000000     0.502310000000    -0.0114098  
C663     C      0.762870000000     0.971050000000     0.525460000000    -0.0105334  
C664     C      0.762010000000     0.529910000000     0.525900000000    -0.0119303  
C665     C      0.497510000000     0.719900000000     0.494340000000    -0.0116812  
C666     C      0.998560000000     0.778480000000     0.492130000000    -0.0120111  
C667     C      0.471420000000     0.721310000000     0.518690000000    -0.0117412  
C668     C      0.972690000000     0.779870000000     0.516760000000    -0.0117404  
C669     C      0.860400000000     0.717050000000     0.361140000000    -0.0112429  
C670     C      0.859610000000     0.775440000000     0.356850000000    -0.0120699  
C671     C      0.886440000000     0.719020000000     0.385300000000    -0.0117616  
C672     C      0.887270000000     0.777440000000     0.379590000000    -0.0123588  
C673     C      0.610220000000     0.770570000000     0.388930000000    -0.011482   
C674     C      0.609220000000     0.712060000000     0.386930000000    -0.0119205  
C675     C      0.636900000000     0.771070000000     0.365430000000    -0.0115727  
C676     C      0.637350000000     0.712340000000     0.364740000000    -0.012331   
C677     C      0.505760000000     0.969710000000     0.522080000000    -0.0121593  
C678     C      0.004260000000     0.528300000000     0.521510000000    -0.0119601  
C679     C      0.530170000000     0.970170000000     0.495780000000    -0.0119922  
C680     C      0.029220000000     0.528770000000     0.495900000000    -0.0121072  
C681     C      0.893260000000     0.027030000000     0.392030000000    -0.0128592  
C682     C      0.891870000000     0.968220000000     0.389600000000    -0.0119642  
C683     C      0.921210000000     0.527090000000     0.370220000000    -0.0109713  
C684     C      0.921470000000     0.468590000000     0.369500000000    -0.0118104  
C685     C      0.643690000000     0.973950000000     0.382480000000    -0.0100504  
C686     C      0.642520000000     0.532650000000     0.378560000000    -0.0121654  
C687     C      0.670780000000     0.976180000000     0.405340000000    -0.00988144 
C688     C      0.671090000000     0.534420000000     0.400060000000    -0.0117696  
C689     C      0.742290000000     0.726820000000     0.754920000000    -0.0109912  
C690     C      0.700330000000     0.767990000000     0.756070000000    -0.010655   
C691     C      0.753840000000     0.739600000000     0.723540000000    -0.0107736  
C692     C      0.713900000000     0.782640000000     0.726260000000    -0.01054    
C693     C      0.708490000000     0.988420000000     0.775410000000    -0.00575853 
C694     C      0.746950000000     0.532630000000     0.778350000000    -0.00944865 
C695     C      0.727270000000     0.973720000000     0.748550000000    -0.0119155  
C696     C      0.764790000000     0.519160000000     0.750590000000    -0.0110612  
C697     C      0.764110000000     0.863590000000     0.861860000000    -0.0123807  
C698     C      0.706200000000     0.864290000000     0.869070000000    -0.0116035  
C699     C      0.767180000000     0.890840000000     0.885200000000    -0.0123568  
C700     C      0.709480000000     0.889940000000     0.893700000000    -0.0118892  
C701     C      0.701120000000     0.639540000000     0.865380000000    -0.0121337  
C702     C      0.759380000000     0.639090000000     0.863070000000    -0.0113947  
C703     C      0.702040000000     0.614320000000     0.891050000000    -0.0122625  
C704     C      0.760350000000     0.615590000000     0.889950000000    -0.0117612  
C705     C      0.971940000000     0.795740000000     0.767100000000    -0.0101493  
C706     C      0.513170000000     0.753900000000     0.764750000000    -0.0109203  
C707     C      0.952900000000     0.778150000000     0.742490000000    -0.0102877  
C708     C      0.492570000000     0.734720000000     0.742660000000    -0.0108327  
C709     C      0.969770000000     0.998150000000     0.776810000000    -0.00643649 
C710     C      0.512330000000     0.538560000000     0.774610000000    -0.0111293  
C711     C      0.984580000000     0.980980000000     0.748870000000    -0.0105043  
C712     C      0.525530000000     0.522890000000     0.745240000000    -0.0111043  
C713     C      0.528530000000     0.882260000000     0.873240000000    -0.0120294  
C714     C      0.970260000000     0.882990000000     0.879020000000    -0.0110705  
C715     C      0.530820000000     0.909910000000     0.895980000000    -0.0115371  
C716     C      0.973030000000     0.909080000000     0.903060000000    -0.0110952  
C717     C      0.964510000000     0.660110000000     0.866870000000    -0.0116603  
C718     C      0.522730000000     0.659380000000     0.865920000000    -0.0109122  
C719     C      0.964480000000     0.631750000000     0.888880000000    -0.0120711  
C720     C      0.523020000000     0.632760000000     0.889500000000    -0.0113218  
C721     C      0.762970000000     0.720060000000     0.254020000000    -0.0111948  
C722     C      0.721810000000     0.761990000000     0.256220000000    -0.00954169 
C723     C      0.781460000000     0.739810000000     0.230420000000    -0.0111838  
C724     C      0.739590000000     0.781010000000     0.231990000000    -0.00940549 
C725     C      0.714310000000     0.763250000000     0.009850000000    -0.0125072  
C726     C      0.772540000000     0.764420000000     0.005280000000    -0.0132986  
C727     C      0.712570000000     0.742190000000     0.980890000000    -0.0111285  
C728     C      0.770700000000     0.743390000000     0.976310000000    -0.0108456  
C729     C      0.779750000000     0.537400000000     0.248380000000    -0.0109329  
C730     C      0.735850000000     0.998860000000     0.253990000000    -0.00662969 
C731     C      0.796540000000     0.521940000000     0.276100000000    -0.0111063  
C732     C      0.754490000000     0.980890000000     0.278730000000    -0.0100683  
C733     C      0.771430000000     0.506700000000     0.998450000000    -0.0104266  
C734     C      0.712960000000     0.006420000000     0.002520000000    -0.0155125  
C735     C      0.773290000000     0.484990000000     0.026870000000    -0.0123228  
C736     C      0.715300000000     0.984760000000     0.030970000000    -0.0087744  
C737     C      0.784220000000     0.870060000000     0.121510000000    -0.0125551  
C738     C      0.725810000000     0.870700000000     0.122460000000    -0.0119645  
C739     C      0.784640000000     0.893570000000     0.148870000000    -0.0123214  
C740     C      0.726580000000     0.892420000000     0.150900000000    -0.0113245  
C741     C      0.779150000000     0.646030000000     0.127300000000    -0.0119148  
C742     C      0.721150000000     0.647490000000     0.135260000000    -0.0126126  
C743     C      0.776020000000     0.614350000000     0.111190000000    -0.0119792  
C744     C      0.718580000000     0.614840000000     0.120450000000    -0.0122448  
C745     C      0.993020000000     0.706190000000     0.240010000000    -0.0107022  
C746     C      0.535540000000     0.746560000000     0.241260000000    -0.0110789  
C747     C      0.977990000000     0.721190000000     0.268910000000    -0.0112946  
C748     C      0.518650000000     0.763780000000     0.267770000000    -0.0106797  
C749     C      0.531990000000     0.744180000000     0.014930000000    -0.0128367  
C750     C      0.973650000000     0.743820000000     0.017720000000    -0.0130322  
C751     C      0.530580000000     0.769380000000     0.989470000000    -0.0105141  
C752     C      0.972360000000     0.768850000000     0.992030000000    -0.01069    
C753     C      0.012600000000     0.521540000000     0.270940000000    -0.0109705  
C754     C      0.553320000000     0.979190000000     0.270040000000    -0.00850515 
C755     C      0.992050000000     0.501960000000     0.249100000000    -0.0113346  
C756     C      0.534210000000     0.961190000000     0.245740000000    -0.0106735  
C757     C      0.532280000000     0.997670000000     0.021970000000    -0.0101584  
C758     C      0.973830000000     0.997500000000     0.024460000000    -0.00922232 
C759     C      0.531080000000     0.525420000000     0.999370000000    -0.0101545  
C760     C      0.973000000000     0.525250000000     0.001820000000    -0.0128817  
C761     C      0.976900000000     0.847880000000     0.145790000000    -0.0122614  
C762     C      0.535060000000     0.848860000000     0.141240000000    -0.0113529  
C763     C      0.974950000000     0.877250000000     0.125140000000    -0.0122281  
C764     C      0.533000000000     0.876690000000     0.119070000000    -0.0115957  
C765     C      0.981990000000     0.600640000000     0.144900000000    -0.0112812  
C766     C      0.540290000000     0.599730000000     0.144220000000    -0.012227   
C767     C      0.981990000000     0.624920000000     0.118710000000    -0.0116152  
C768     C      0.540280000000     0.625680000000     0.119290000000    -0.0121065  
Cu1      Cu     0.036470000000     0.987220000000     0.134220000000     0.843323   
Cu2      Cu     0.479210000000     0.489380000000     0.136900000000     0.843589   
Cu3      Cu     0.036870000000     0.238270000000     0.127670000000     0.841267   
Cu4      Cu     0.479620000000     0.235970000000     0.130270000000     0.839388   
Cu5      Cu     0.280340000000     0.505900000000     0.137760000000     0.836713   
Cu6      Cu     0.223160000000     0.503920000000     0.141700000000     0.840874   
Cu7      Cu     0.280840000000     0.256910000000     0.117440000000     0.838497   
Cu8      Cu     0.223710000000     0.259130000000     0.121950000000     0.842866   
Cu9      Cu     0.026030000000     0.521900000000     0.886540000000     0.846536   
Cu10     Cu     0.468760000000     0.519450000000     0.889050000000     0.842805   
Cu11     Cu     0.025460000000     0.269910000000     0.876570000000     0.846524   
Cu12     Cu     0.468170000000     0.272080000000     0.878980000000     0.844226   
Cu13     Cu     0.206240000000     0.501500000000     0.889990000000     0.839217   
Cu14     Cu     0.263450000000     0.503940000000     0.886550000000     0.844546   
Cu15     Cu     0.261230000000     0.250650000000     0.864260000000     0.84247    
Cu16     Cu     0.204090000000     0.252530000000     0.868940000000     0.839364   
Cu17     Cu     0.033000000000     0.471350000000     0.382530000000     0.839008   
Cu18     Cu     0.030790000000     0.028940000000     0.382800000000     0.843408   
Cu19     Cu     0.997250000000     0.216070000000     0.381480000000     0.841573   
Cu20     Cu     0.999580000000     0.273620000000     0.379360000000     0.840987   
Cu21     Cu     0.280420000000     0.472970000000     0.389330000000     0.844592   
Cu22     Cu     0.282850000000     0.030560000000     0.389550000000     0.840713   
Cu23     Cu     0.249510000000     0.215130000000     0.367590000000     0.842265   
Cu24     Cu     0.247600000000     0.272730000000     0.365880000000     0.846608   
Cu25     Cu     0.002200000000     0.471980000000     0.635590000000     0.835696   
Cu26     Cu     0.003060000000     0.029580000000     0.634340000000     0.838414   
Cu27     Cu     0.973020000000     0.225090000000     0.631350000000     0.842802   
Cu28     Cu     0.972200000000     0.282720000000     0.629830000000     0.840858   
Cu29     Cu     0.253240000000     0.028190000000     0.638310000000     0.843211   
Cu30     Cu     0.252580000000     0.470540000000     0.637610000000     0.840852   
Cu31     Cu     0.222910000000     0.282970000000     0.612650000000     0.840987   
Cu32     Cu     0.223720000000     0.225380000000     0.615000000000     0.842219   
Cu33     Cu     0.036470000000     0.487220000000     0.134220000000     0.841187   
Cu34     Cu     0.479210000000     0.989380000000     0.136900000000     0.845848   
Cu35     Cu     0.036870000000     0.738270000000     0.127670000000     0.841243   
Cu36     Cu     0.479620000000     0.735980000000     0.130270000000     0.83937    
Cu37     Cu     0.280340000000     0.005900000000     0.137760000000     0.833022   
Cu38     Cu     0.223160000000     0.003910000000     0.141700000000     0.837049   
Cu39     Cu     0.280840000000     0.756910000000     0.117440000000     0.838617   
Cu40     Cu     0.223710000000     0.759130000000     0.121950000000     0.842834   
Cu41     Cu     0.026030000000     0.021900000000     0.886540000000     0.844553   
Cu42     Cu     0.468760000000     0.019450000000     0.889050000000     0.84086    
Cu43     Cu     0.025460000000     0.769910000000     0.876570000000     0.846637   
Cu44     Cu     0.468170000000     0.772080000000     0.878980000000     0.844203   
Cu45     Cu     0.206240000000     0.001500000000     0.889990000000     0.837133   
Cu46     Cu     0.263450000000     0.003940000000     0.886550000000     0.842389   
Cu47     Cu     0.261230000000     0.750650000000     0.864260000000     0.84247    
Cu48     Cu     0.204090000000     0.752530000000     0.868940000000     0.839356   
Cu49     Cu     0.033000000000     0.971340000000     0.382530000000     0.841013   
Cu50     Cu     0.030790000000     0.528940000000     0.382800000000     0.845207   
Cu51     Cu     0.997250000000     0.716070000000     0.381480000000     0.841529   
Cu52     Cu     0.999580000000     0.773610000000     0.379360000000     0.840988   
Cu53     Cu     0.280420000000     0.972970000000     0.389330000000     0.846222   
Cu54     Cu     0.282850000000     0.530570000000     0.389550000000     0.842979   
Cu55     Cu     0.249510000000     0.715130000000     0.367590000000     0.842067   
Cu56     Cu     0.247600000000     0.772720000000     0.365880000000     0.84655    
Cu57     Cu     0.002200000000     0.971970000000     0.635590000000     0.83744    
Cu58     Cu     0.003060000000     0.529580000000     0.634340000000     0.840554   
Cu59     Cu     0.973020000000     0.725090000000     0.631350000000     0.842756   
Cu60     Cu     0.972200000000     0.782720000000     0.629830000000     0.840818   
Cu61     Cu     0.253240000000     0.528190000000     0.638310000000     0.844803   
Cu62     Cu     0.252580000000     0.970540000000     0.637610000000     0.84317    
Cu63     Cu     0.222910000000     0.782970000000     0.612650000000     0.841033   
Cu64     Cu     0.223720000000     0.725380000000     0.615000000000     0.842244   
Cu65     Cu     0.536470000000     0.987220000000     0.134220000000     0.843212   
Cu66     Cu     0.979210000000     0.489380000000     0.136900000000     0.843582   
Cu67     Cu     0.536870000000     0.238270000000     0.127670000000     0.841163   
Cu68     Cu     0.979620000000     0.235970000000     0.130270000000     0.839352   
Cu69     Cu     0.780340000000     0.505900000000     0.137760000000     0.836713   
Cu70     Cu     0.723160000000     0.503920000000     0.141700000000     0.840875   
Cu71     Cu     0.780840000000     0.256910000000     0.117440000000     0.838525   
Cu72     Cu     0.723710000000     0.259130000000     0.121950000000     0.84284    
Cu73     Cu     0.526030000000     0.521900000000     0.886540000000     0.846469   
Cu74     Cu     0.968760000000     0.519450000000     0.889050000000     0.842685   
Cu75     Cu     0.525460000000     0.269910000000     0.876570000000     0.846473   
Cu76     Cu     0.968170000000     0.272080000000     0.878980000000     0.844144   
Cu77     Cu     0.706240000000     0.501500000000     0.889990000000     0.839287   
Cu78     Cu     0.763450000000     0.503940000000     0.886550000000     0.844567   
Cu79     Cu     0.761230000000     0.250650000000     0.864260000000     0.84247    
Cu80     Cu     0.704090000000     0.252530000000     0.868940000000     0.839365   
Cu81     Cu     0.533000000000     0.471350000000     0.382530000000     0.838915   
Cu82     Cu     0.530790000000     0.028940000000     0.382800000000     0.843292   
Cu83     Cu     0.497250000000     0.216070000000     0.381480000000     0.841626   
Cu84     Cu     0.499580000000     0.273620000000     0.379360000000     0.841114   
Cu85     Cu     0.780420000000     0.472970000000     0.389330000000     0.844593   
Cu86     Cu     0.782850000000     0.030560000000     0.389550000000     0.84071    
Cu87     Cu     0.749510000000     0.215130000000     0.367590000000     0.842258   
Cu88     Cu     0.747600000000     0.272730000000     0.365880000000     0.846607   
Cu89     Cu     0.502200000000     0.471980000000     0.635590000000     0.835473   
Cu90     Cu     0.503060000000     0.029580000000     0.634340000000     0.838275   
Cu91     Cu     0.473010000000     0.225090000000     0.631350000000     0.842879   
Cu92     Cu     0.472200000000     0.282720000000     0.629830000000     0.840933   
Cu93     Cu     0.753240000000     0.028190000000     0.638310000000     0.843212   
Cu94     Cu     0.752580000000     0.470540000000     0.637610000000     0.840848   
Cu95     Cu     0.722910000000     0.282970000000     0.612650000000     0.840987   
Cu96     Cu     0.723720000000     0.225380000000     0.615000000000     0.84222    
Cu97     Cu     0.536470000000     0.487220000000     0.134220000000     0.841063   
Cu98     Cu     0.979210000000     0.989380000000     0.136900000000     0.845843   
Cu99     Cu     0.536870000000     0.738270000000     0.127670000000     0.841144   
Cu100    Cu     0.979620000000     0.735980000000     0.130270000000     0.839335   
Cu101    Cu     0.780340000000     0.005900000000     0.137760000000     0.833017   
Cu102    Cu     0.723160000000     0.003910000000     0.141700000000     0.837042   
Cu103    Cu     0.780840000000     0.756910000000     0.117440000000     0.838645   
Cu104    Cu     0.723710000000     0.759130000000     0.121950000000     0.842808   
Cu105    Cu     0.526030000000     0.021900000000     0.886540000000     0.844472   
Cu106    Cu     0.968760000000     0.019450000000     0.889050000000     0.840732   
Cu107    Cu     0.525460000000     0.769910000000     0.876570000000     0.846589   
Cu108    Cu     0.968170000000     0.772080000000     0.878980000000     0.844125   
Cu109    Cu     0.706240000000     0.001500000000     0.889990000000     0.837198   
Cu110    Cu     0.763450000000     0.003940000000     0.886550000000     0.842407   
Cu111    Cu     0.761230000000     0.750650000000     0.864260000000     0.84247    
Cu112    Cu     0.704090000000     0.752530000000     0.868940000000     0.839357   
Cu113    Cu     0.533000000000     0.971340000000     0.382530000000     0.840933   
Cu114    Cu     0.530790000000     0.528940000000     0.382800000000     0.845108   
Cu115    Cu     0.497250000000     0.716070000000     0.381480000000     0.841578   
Cu116    Cu     0.499580000000     0.773610000000     0.379360000000     0.841109   
Cu117    Cu     0.780420000000     0.972970000000     0.389330000000     0.846224   
Cu118    Cu     0.782850000000     0.530570000000     0.389550000000     0.842979   
Cu119    Cu     0.749510000000     0.715130000000     0.367590000000     0.842061   
Cu120    Cu     0.747600000000     0.772720000000     0.365880000000     0.846549   
Cu121    Cu     0.502200000000     0.971970000000     0.635590000000     0.837237   
Cu122    Cu     0.503060000000     0.529580000000     0.634340000000     0.840435   
Cu123    Cu     0.473010000000     0.725090000000     0.631350000000     0.842829   
Cu124    Cu     0.472200000000     0.782720000000     0.629830000000     0.84089    
Cu125    Cu     0.753240000000     0.528190000000     0.638310000000     0.844808   
Cu126    Cu     0.752580000000     0.970540000000     0.637610000000     0.843171   
Cu127    Cu     0.722910000000     0.782970000000     0.612650000000     0.841034   
Cu128    Cu     0.723720000000     0.725380000000     0.615000000000     0.842245   
H1       H      0.345910000000     0.285270000000     0.584160000000     0.0397766  
H2       H      0.345870000000     0.223490000000     0.583700000000     0.0395902  
H3       H      0.375470000000     0.203480000000     0.628220000000     0.0426693  
H4       H      0.320420000000     0.304580000000     0.611360000000     0.0426664  
H5       H      0.375650000000     0.304260000000     0.629090000000     0.0432588  
H6       H      0.350030000000     0.284900000000     0.656030000000     0.0393893  
H7       H      0.320260000000     0.203770000000     0.610420000000     0.0428904  
H8       H      0.349900000000     0.222480000000     0.655600000000     0.0394294  
H9       H      0.093640000000     0.224930000000     0.662150000000     0.0389841  
H10      H      0.093550000000     0.286950000000     0.658800000000     0.0393704  
H11      H      0.125850000000     0.304070000000     0.615130000000     0.0431611  
H12      H      0.069990000000     0.204060000000     0.634510000000     0.0428425  
H13      H      0.126450000000     0.203580000000     0.620980000000     0.043023   
H14      H      0.102600000000     0.220550000000     0.590890000000     0.040109   
H15      H      0.069620000000     0.304620000000     0.629120000000     0.0426166  
H16      H      0.102050000000     0.283460000000     0.587370000000     0.0401428  
H17      H      0.381500000000     0.470510000000     0.602610000000     0.0399036  
H18      H      0.381260000000     0.033030000000     0.605250000000     0.0395839  
H19      H      0.349160000000     0.049910000000     0.649420000000     0.0432437  
H20      H      0.405870000000     0.450290000000     0.630110000000     0.0431991  
H21      H      0.349930000000     0.449190000000     0.645150000000     0.0427563  
H22      H      0.373980000000     0.467790000000     0.674180000000     0.0395087  
H23      H      0.405290000000     0.050980000000     0.634660000000     0.0427033  
H24      H      0.373460000000     0.029340000000     0.676710000000     0.0389781  
H25      H      0.133660000000     0.469370000000     0.597750000000     0.0396696  
H26      H      0.134220000000     0.031210000000     0.598050000000     0.0395021  
H27      H      0.099880000000     0.050620000000     0.639090000000     0.0429954  
H28      H      0.156070000000     0.449560000000     0.627260000000     0.0429447  
H29      H      0.099320000000     0.449870000000     0.638810000000     0.0428779  
H30      H      0.121980000000     0.468680000000     0.668810000000     0.0397664  
H31      H      0.156770000000     0.050350000000     0.627860000000     0.0430407  
H32      H      0.122210000000     0.031400000000     0.668980000000     0.0389669  
H33      H      0.272010000000     0.278170000000     0.493390000000     0.0401316  
H34      H      0.270210000000     0.217000000000     0.495450000000     0.0399308  
H35      H      0.220730000000     0.199610000000     0.518150000000     0.0431342  
H36      H      0.251000000000     0.297690000000     0.462680000000     0.0429686  
H37      H      0.223480000000     0.300470000000     0.514040000000     0.0431084  
H38      H      0.201280000000     0.279980000000     0.484860000000     0.0400609  
H39      H      0.247680000000     0.196820000000     0.466290000000     0.0429147  
H40      H      0.199410000000     0.218880000000     0.487490000000     0.0400694  
H41      H      0.311000000000     0.531510000000     0.515670000000     0.0392398  
H42      H      0.311880000000     0.471030000000     0.515260000000     0.0392697  
H43      H      0.265390000000     0.449960000000     0.540460000000     0.0430067  
H44      H      0.287100000000     0.051550000000     0.487550000000     0.0429516  
H45      H      0.263960000000     0.050830000000     0.541220000000     0.0430258  
H46      H      0.239820000000     0.031770000000     0.512630000000     0.0402079  
H47      H      0.288590000000     0.450680000000     0.486830000000     0.0429125  
H48      H      0.240750000000     0.968750000000     0.512140000000     0.0407436  
H49      H      0.521260000000     0.280220000000     0.504500000000     0.0398104  
H50      H      0.020050000000     0.218340000000     0.507040000000     0.0401703  
H51      H      0.973210000000     0.200610000000     0.534330000000     0.0430438  
H52      H      0.496470000000     0.299050000000     0.476360000000     0.0431007  
H53      H      0.475610000000     0.301400000000     0.531030000000     0.0429795  
H54      H      0.450050000000     0.281610000000     0.504270000000     0.0399127  
H55      H      0.994790000000     0.198270000000     0.480180000000     0.0429915  
H56      H      0.948820000000     0.219840000000     0.506090000000     0.0398579  
H57      H      0.368860000000     0.275770000000     0.332450000000     0.0391946  
H58      H      0.371020000000     0.214100000000     0.337500000000     0.0390282  
H59      H      0.400660000000     0.197410000000     0.383760000000     0.0431307  
H60      H      0.344840000000     0.296520000000     0.359890000000     0.042883   
H61      H      0.402120000000     0.297560000000     0.372730000000     0.0429624  
H62      H      0.378060000000     0.282210000000     0.403520000000     0.0397304  
H63      H      0.346210000000     0.195920000000     0.366080000000     0.0428118  
H64      H      0.375840000000     0.219770000000     0.409120000000     0.0405268  
H65      H      0.117910000000     0.209110000000     0.411360000000     0.039197   
H66      H      0.120200000000     0.270990000000     0.413030000000     0.0398176  
H67      H      0.151190000000     0.292250000000     0.369820000000     0.042881   
H68      H      0.094480000000     0.191490000000     0.381290000000     0.0428773  
H69      H      0.151970000000     0.191520000000     0.369740000000     0.0430389  
H70      H      0.128670000000     0.210190000000     0.340230000000     0.0398703  
H71      H      0.096190000000     0.292150000000     0.385870000000     0.0429418  
H72      H      0.126970000000     0.273070000000     0.341390000000     0.0394308  
H73      H      0.481110000000     0.529420000000     0.509950000000     0.0400782  
H74      H      0.982480000000     0.466920000000     0.511100000000     0.0397528  
H75      H      0.026930000000     0.449150000000     0.480820000000     0.0430015  
H76      H      0.506850000000     0.049600000000     0.536200000000     0.0432519  
H77      H      0.525710000000     0.049810000000     0.481050000000     0.043127   
H78      H      0.552310000000     0.030960000000     0.507450000000     0.0398195  
H79      H      0.009930000000     0.448970000000     0.537200000000     0.0428305  
H80      H      0.053550000000     0.968470000000     0.506790000000     0.0399891  
H81      H      0.398720000000     0.464310000000     0.414480000000     0.0398598  
H82      H      0.401720000000     0.527890000000     0.416710000000     0.0409907  
H83      H      0.435220000000     0.048370000000     0.374930000000     0.042817   
H84      H      0.377260000000     0.448100000000     0.382220000000     0.043047   
H85      H      0.435580000000     0.447590000000     0.375170000000     0.0426394  
H86      H      0.414530000000     0.966990000000     0.344390000000     0.0393013  
H87      H      0.379560000000     0.048590000000     0.387610000000     0.0432376  
H88      H      0.412690000000     0.028510000000     0.345590000000     0.0381875  
H89      H      0.150640000000     0.033710000000     0.353780000000     0.0395245  
H90      H      0.153160000000     0.470580000000     0.358400000000     0.0398358  
H91      H      0.184950000000     0.454570000000     0.403490000000     0.042938   
H92      H      0.127740000000     0.053520000000     0.382840000000     0.0432111  
H93      H      0.185450000000     0.054850000000     0.393080000000     0.0426431  
H94      H      0.162900000000     0.038410000000     0.424510000000     0.0387831  
H95      H      0.129720000000     0.452960000000     0.388500000000     0.0430335  
H96      H      0.161250000000     0.477280000000     0.429610000000     0.0396429  
H97      H      0.181380000000     0.251650000000     0.749320000000     0.0419654  
H98      H      0.226470000000     0.206870000000     0.749960000000     0.0394769  
H99      H      0.262080000000     0.219960000000     0.708580000000     0.0406272  
H100     H      0.190290000000     0.286720000000     0.771100000000     0.0393164  
H101     H      0.194880000000     0.293880000000     0.712620000000     0.0393128  
H102     H      0.230950000000     0.300940000000     0.733110000000     0.0418147  
H103     H      0.262300000000     0.217470000000     0.768550000000     0.0409453  
H104     H      0.274230000000     0.254850000000     0.728290000000     0.0393081  
H105     H      0.230330000000     0.050290000000     0.769130000000     0.0389297  
H106     H      0.189850000000     0.003230000000     0.765120000000     0.0383179  
H107     H      0.211150000000     0.461180000000     0.732450000000     0.0396776  
H108     H      0.263280000000     0.044910000000     0.794430000000     0.039356   
H109     H      0.274590000000     0.038560000000     0.736300000000     0.0414125  
H110     H      0.284700000000     0.505470000000     0.759980000000     0.0409004  
H111     H      0.197500000000     0.469640000000     0.789660000000     0.0386929  
H112     H      0.243770000000     0.456440000000     0.758660000000     0.0420258  
H113     H      0.201860000000     0.375490000000     0.845900000000     0.0397177  
H114     H      0.263520000000     0.373470000000     0.837710000000     0.0394964  
H115     H      0.286940000000     0.405880000000     0.877850000000     0.0427485  
H116     H      0.185520000000     0.349870000000     0.874930000000     0.0431757  
H117     H      0.187950000000     0.404270000000     0.893680000000     0.0434243  
H118     H      0.211460000000     0.378720000000     0.917190000000     0.0403799  
H119     H      0.285130000000     0.348610000000     0.863690000000     0.042907   
H120     H      0.272910000000     0.380970000000     0.908660000000     0.039561   
H121     H      0.259690000000     0.125980000000     0.840520000000     0.0389258  
H122     H      0.198260000000     0.127680000000     0.842310000000     0.0391877  
H123     H      0.181390000000     0.098940000000     0.888480000000     0.0428023  
H124     H      0.280690000000     0.153720000000     0.863970000000     0.0430483  
H125     H      0.281760000000     0.101250000000     0.887720000000     0.0430727  
H126     H      0.261830000000     0.128710000000     0.912460000000     0.0404771  
H127     H      0.180430000000     0.154620000000     0.869150000000     0.0427737  
H128     H      0.200310000000     0.126150000000     0.914240000000     0.0395889  
H129     H      0.029270000000     0.268360000000     0.750380000000     0.0415516  
H130     H      0.486030000000     0.313660000000     0.754660000000     0.0400146  
H131     H      0.440880000000     0.295090000000     0.726820000000     0.040332   
H132     H      0.027180000000     0.237760000000     0.779570000000     0.0399062  
H133     H      0.007590000000     0.220320000000     0.727040000000     0.040084   
H134     H      0.977830000000     0.218820000000     0.756990000000     0.0416006  
H135     H      0.456100000000     0.308230000000     0.783500000000     0.0401388  
H136     H      0.434690000000     0.264590000000     0.755030000000     0.0400726  
H137     H      0.997130000000     0.058110000000     0.766900000000     0.0394472  
H138     H      0.451390000000     0.014060000000     0.767780000000     0.0392552  
H139     H      0.466070000000     0.469150000000     0.735010000000     0.0386968  
H140     H      0.031650000000     0.048910000000     0.788510000000     0.0410892  
H141     H      0.035230000000     0.041030000000     0.729290000000     0.040882   
H142     H      0.045170000000     0.507700000000     0.752630000000     0.0397098  
H143     H      0.458690000000     0.480770000000     0.792710000000     0.039341   
H144     H      0.500750000000     0.462870000000     0.758040000000     0.0417282  
H145     H      0.466360000000     0.393610000000     0.855500000000     0.0399566  
H146     H      0.028590000000     0.391570000000     0.848860000000     0.0399648  
H147     H      0.050940000000     0.424710000000     0.889180000000     0.0427286  
H148     H      0.449500000000     0.368660000000     0.884840000000     0.043271   
H149     H      0.451410000000     0.423280000000     0.902610000000     0.0430858  
H150     H      0.475010000000     0.398400000000     0.926800000000     0.0398229  
H151     H      0.049510000000     0.367370000000     0.876050000000     0.0430794  
H152     H      0.035410000000     0.400550000000     0.919910000000     0.0391019  
H153     H      0.023280000000     0.149250000000     0.841860000000     0.0388877  
H154     H      0.462280000000     0.151510000000     0.842320000000     0.038805   
H155     H      0.444050000000     0.116890000000     0.883250000000     0.0428094  
H156     H      0.044150000000     0.173540000000     0.869030000000     0.0429507  
H157     H      0.044340000000     0.118630000000     0.885620000000     0.0434016  
H158     H      0.024380000000     0.142850000000     0.913550000000     0.0410248  
H159     H      0.443820000000     0.174780000000     0.872060000000     0.0426793  
H160     H      0.461650000000     0.140310000000     0.913380000000     0.0398978  
H161     H      0.204220000000     0.247700000000     0.243570000000     0.0409867  
H162     H      0.248020000000     0.203480000000     0.240760000000     0.0410703  
H163     H      0.294430000000     0.224060000000     0.214270000000     0.0396233  
H164     H      0.209140000000     0.277880000000     0.272470000000     0.0399869  
H165     H      0.223040000000     0.294400000000     0.217080000000     0.0397338  
H166     H      0.254340000000     0.298150000000     0.244770000000     0.0408334  
H167     H      0.279380000000     0.206420000000     0.268860000000     0.0396577  
H168     H      0.298480000000     0.254320000000     0.243590000000     0.0410409  
H169     H      0.273510000000     0.289120000000     0.997240000000     0.0407985  
H170     H      0.211150000000     0.287850000000     0.002110000000     0.0398943  
H171     H      0.190470000000     0.247080000000     0.968290000000     0.0429481  
H172     H      0.294570000000     0.259320000000     0.017920000000     0.0431832  
H173     H      0.290370000000     0.249180000000     0.960410000000     0.0427885  
H174     H      0.273680000000     0.218760000000     0.984050000000     0.0396582  
H175     H      0.194700000000     0.257310000000     0.025760000000     0.0430175  
H176     H      0.211830000000     0.217490000000     0.988950000000     0.03984    
H177     H      0.220380000000     0.515810000000     0.266140000000     0.0417987  
H178     H      0.266630000000     0.057780000000     0.257650000000     0.0393051  
H179     H      0.308360000000     0.040140000000     0.290430000000     0.0404766  
H180     H      0.221140000000     0.482100000000     0.240640000000     0.040658   
H181     H      0.238130000000     0.469210000000     0.295220000000     0.0392472  
H182     H      0.268580000000     0.462650000000     0.266750000000     0.0422397  
H183     H      0.297130000000     0.046520000000     0.231340000000     0.0406518  
H184     H      0.314950000000     0.006500000000     0.266360000000     0.0389988  
H185     H      0.211080000000     0.030870000000     0.011140000000     0.040709   
H186     H      0.274190000000     0.031160000000     0.006810000000     0.039653   
H187     H      0.295310000000     0.989610000000     0.039700000000     0.0429157  
H188     H      0.191250000000     0.500850000000     0.989520000000     0.0436444  
H189     H      0.195220000000     0.489180000000     0.046770000000     0.0425967  
H190     H      0.213560000000     0.460240000000     0.022520000000     0.0387534  
H191     H      0.291260000000     0.001450000000     0.982570000000     0.0428914  
H192     H      0.274050000000     0.460490000000     0.018210000000     0.0392271  
H193     H      0.224100000000     0.385280000000     0.100900000000     0.0408737  
H194     H      0.286120000000     0.383420000000     0.099190000000     0.0400142  
H195     H      0.305320000000     0.408930000000     0.146550000000     0.04302    
H196     H      0.204560000000     0.356020000000     0.123740000000     0.0431916  
H197     H      0.205070000000     0.406760000000     0.151270000000     0.0426497  
H198     H      0.226740000000     0.377800000000     0.172510000000     0.0388819  
H199     H      0.304960000000     0.354700000000     0.123290000000     0.0430978  
H200     H      0.287090000000     0.380180000000     0.171120000000     0.0393699  
H201     H      0.221500000000     0.144750000000     0.161240000000     0.0399357  
H202     H      0.285030000000     0.142070000000     0.152430000000     0.0397077  
H203     H      0.297840000000     0.100990000000     0.115010000000     0.0428876  
H204     H      0.199940000000     0.161000000000     0.129110000000     0.0427945  
H205     H      0.199190000000     0.102050000000     0.131960000000     0.0426516  
H206     H      0.212470000000     0.117720000000     0.095230000000     0.0390724  
H207     H      0.298940000000     0.158710000000     0.116360000000     0.0427756  
H208     H      0.273620000000     0.118350000000     0.085480000000     0.0394548  
H209     H      0.052780000000     0.230270000000     0.251780000000     0.0413919  
H210     H      0.507950000000     0.186650000000     0.248280000000     0.0388863  
H211     H      0.468110000000     0.202640000000     0.284250000000     0.0407953  
H212     H      0.048160000000     0.263850000000     0.226480000000     0.039845   
H213     H      0.036080000000     0.275900000000     0.282760000000     0.0393957  
H214     H      0.003020000000     0.281660000000     0.257300000000     0.0422448  
H215     H      0.474710000000     0.195950000000     0.224700000000     0.0401649  
H216     H      0.458260000000     0.235850000000     0.260700000000     0.0398665  
H217     H      0.471150000000     0.220570000000     0.006360000000     0.0400429  
H218     H      0.033630000000     0.221030000000     0.003200000000     0.0401837  
H219     H      0.050940000000     0.266590000000     0.973660000000     0.042823   
H220     H      0.453480000000     0.247090000000     0.033690000000     0.0430674  
H221     H      0.450800000000     0.265510000000     0.978060000000     0.0427575  
H222     H      0.470860000000     0.292090000000     0.003610000000     0.0388505  
H223     H      0.053560000000     0.247570000000     0.028900000000     0.0430494  
H224     H      0.032580000000     0.292580000000     0.001060000000     0.0389979  
H225     H      0.070860000000     0.993310000000     0.257140000000     0.0406249  
H226     H      0.026670000000     0.037870000000     0.256430000000     0.0410944  
H227     H      0.477370000000     0.017840000000     0.234670000000     0.04045    
H228     H      0.066160000000     0.462510000000     0.285320000000     0.0401369  
H229     H      0.050010000000     0.449110000000     0.228990000000     0.0400681  
H230     H      0.520810000000     0.442910000000     0.258410000000     0.0400553  
H231     H      0.497530000000     0.035490000000     0.286910000000     0.0394816  
H232     H      0.476580000000     0.487040000000     0.263690000000     0.0414433  
H233     H      0.471370000000     0.475690000000     0.010480000000     0.0401224  
H234     H      0.033670000000     0.475880000000     0.007810000000     0.0404035  
H235     H      0.051590000000     0.024550000000     0.983530000000     0.0428252  
H236     H      0.453520000000     0.499050000000     0.040520000000     0.0427614  
H237     H      0.451270000000     0.524230000000     0.987750000000     0.0435598  
H238     H      0.472400000000     0.047080000000     0.015980000000     0.0394352  
H239     H      0.053850000000     0.999300000000     0.036230000000     0.043267   
H240     H      0.032700000000     0.047240000000     0.013450000000     0.0388222  
H241     H      0.038230000000     0.357800000000     0.165570000000     0.0392874  
H242     H      0.476620000000     0.355380000000     0.170800000000     0.0396604  
H243     H      0.454930000000     0.391650000000     0.133030000000     0.043088   
H244     H      0.056000000000     0.334950000000     0.135100000000     0.0428349  
H245     H      0.054580000000     0.390770000000     0.121390000000     0.0431338  
H246     H      0.031920000000     0.367770000000     0.094550000000     0.0403861  
H247     H      0.455900000000     0.333330000000     0.141670000000     0.0429832  
H248     H      0.470250000000     0.369730000000     0.100590000000     0.0395228  
H249     H      0.042540000000     0.110890000000     0.167700000000     0.0395183  
H250     H      0.481200000000     0.113100000000     0.167820000000     0.0391512  
H251     H      0.460610000000     0.139350000000     0.120620000000     0.0430218  
H252     H      0.060970000000     0.084590000000     0.140620000000     0.0426167  
H253     H      0.061010000000     0.140760000000     0.122790000000     0.0429802  
H254     H      0.042410000000     0.114500000000     0.095800000000     0.039228   
H255     H      0.460570000000     0.086260000000     0.143010000000     0.0425773  
H256     H      0.481170000000     0.112460000000     0.095790000000     0.0399866  
H257     H      0.345910000000     0.785270000000     0.584160000000     0.0397718  
H258     H      0.345870000000     0.723490000000     0.583700000000     0.0395815  
H259     H      0.375470000000     0.703480000000     0.628220000000     0.0426693  
H260     H      0.320420000000     0.804580000000     0.611360000000     0.0426655  
H261     H      0.375650000000     0.804260000000     0.629090000000     0.0432701  
H262     H      0.350030000000     0.784900000000     0.656030000000     0.0393943  
H263     H      0.320260000000     0.703770000000     0.610420000000     0.042878   
H264     H      0.349900000000     0.722480000000     0.655600000000     0.0394248  
H265     H      0.093640000000     0.724930000000     0.662150000000     0.0389776  
H266     H      0.093550000000     0.786950000000     0.658800000000     0.0393783  
H267     H      0.125850000000     0.804070000000     0.615130000000     0.0431702  
H268     H      0.069990000000     0.704060000000     0.634510000000     0.0428366  
H269     H      0.126450000000     0.703580000000     0.620980000000     0.0430273  
H270     H      0.102600000000     0.720560000000     0.590890000000     0.0401163  
H271     H      0.069620000000     0.804620000000     0.629120000000     0.0426249  
H272     H      0.102050000000     0.783460000000     0.587370000000     0.0401392  
H273     H      0.381500000000     0.970510000000     0.602610000000     0.0400507  
H274     H      0.381260000000     0.533030000000     0.605250000000     0.0400993  
H275     H      0.349160000000     0.549910000000     0.649420000000     0.0430549  
H276     H      0.405870000000     0.950290000000     0.630110000000     0.042986   
H277     H      0.349930000000     0.949190000000     0.645150000000     0.0428398  
H278     H      0.373980000000     0.967780000000     0.674180000000     0.0400957  
H279     H      0.405290000000     0.550980000000     0.634660000000     0.0427645  
H280     H      0.373460000000     0.529340000000     0.676710000000     0.0391217  
H281     H      0.133660000000     0.969370000000     0.597750000000     0.0402691  
H282     H      0.134220000000     0.531210000000     0.598050000000     0.0396638  
H283     H      0.099880000000     0.550620000000     0.639090000000     0.0430483  
H284     H      0.156070000000     0.949560000000     0.627260000000     0.043061   
H285     H      0.099320000000     0.949870000000     0.638810000000     0.0427207  
H286     H      0.121980000000     0.968680000000     0.668810000000     0.0399764  
H287     H      0.156770000000     0.550350000000     0.627860000000     0.0428603  
H288     H      0.122210000000     0.531400000000     0.668980000000     0.0394513  
H289     H      0.272010000000     0.778170000000     0.493390000000     0.0401175  
H290     H      0.270210000000     0.717000000000     0.495450000000     0.0399375  
H291     H      0.220730000000     0.699610000000     0.518150000000     0.0431329  
H292     H      0.251000000000     0.797690000000     0.462680000000     0.0429648  
H293     H      0.223480000000     0.800480000000     0.514040000000     0.0431004  
H294     H      0.201280000000     0.779970000000     0.484860000000     0.0400643  
H295     H      0.247680000000     0.696820000000     0.466290000000     0.0429259  
H296     H      0.199410000000     0.718880000000     0.487490000000     0.0400617  
H297     H      0.311000000000     0.031510000000     0.515670000000     0.0388581  
H298     H      0.311880000000     0.971030000000     0.515260000000     0.0396309  
H299     H      0.265390000000     0.949960000000     0.540460000000     0.0429114  
H300     H      0.287100000000     0.551550000000     0.487550000000     0.042938   
H301     H      0.263960000000     0.550830000000     0.541220000000     0.0430324  
H302     H      0.239820000000     0.531770000000     0.512630000000     0.0405538  
H303     H      0.288590000000     0.950680000000     0.486830000000     0.0427989  
H304     H      0.240750000000     0.468750000000     0.512140000000     0.04038    
H305     H      0.521260000000     0.780220000000     0.504500000000     0.0398023  
H306     H      0.020050000000     0.718350000000     0.507040000000     0.0401676  
H307     H      0.973210000000     0.700610000000     0.534330000000     0.0430522  
H308     H      0.496470000000     0.799050000000     0.476360000000     0.0431009  
H309     H      0.475610000000     0.801400000000     0.531030000000     0.0429851  
H310     H      0.450050000000     0.781610000000     0.504270000000     0.0399112  
H311     H      0.994790000000     0.698270000000     0.480180000000     0.0429899  
H312     H      0.948820000000     0.719850000000     0.506090000000     0.0398658  
H313     H      0.368860000000     0.775770000000     0.332450000000     0.0392212  
H314     H      0.371020000000     0.714100000000     0.337500000000     0.0390183  
H315     H      0.400660000000     0.697410000000     0.383760000000     0.0431292  
H316     H      0.344840000000     0.796520000000     0.359890000000     0.0429198  
H317     H      0.402120000000     0.797560000000     0.372730000000     0.0429641  
H318     H      0.378060000000     0.782210000000     0.403520000000     0.0397217  
H319     H      0.346210000000     0.695920000000     0.366080000000     0.0428031  
H320     H      0.375840000000     0.719770000000     0.409120000000     0.0405235  
H321     H      0.117910000000     0.709110000000     0.411360000000     0.039158   
H322     H      0.120200000000     0.770990000000     0.413030000000     0.0398113  
H323     H      0.151190000000     0.792250000000     0.369820000000     0.042891   
H324     H      0.094480000000     0.691490000000     0.381290000000     0.0428411  
H325     H      0.151970000000     0.691520000000     0.369740000000     0.0430568  
H326     H      0.128670000000     0.710190000000     0.340230000000     0.0398847  
H327     H      0.096190000000     0.792150000000     0.385870000000     0.0429422  
H328     H      0.126970000000     0.773070000000     0.341390000000     0.039433   
H329     H      0.481110000000     0.029420000000     0.509950000000     0.0397134  
H330     H      0.982480000000     0.966920000000     0.511100000000     0.0401112  
H331     H      0.026930000000     0.949150000000     0.480820000000     0.0429846  
H332     H      0.506850000000     0.549600000000     0.536200000000     0.0431501  
H333     H      0.525710000000     0.549810000000     0.481050000000     0.0430285  
H334     H      0.552310000000     0.530960000000     0.507450000000     0.0401517  
H335     H      0.009930000000     0.948980000000     0.537200000000     0.0428471  
H336     H      0.053550000000     0.468470000000     0.506790000000     0.039623   
H337     H      0.398720000000     0.964300000000     0.414480000000     0.0401828  
H338     H      0.401720000000     0.027890000000     0.416710000000     0.0406035  
H339     H      0.435220000000     0.548380000000     0.374930000000     0.0426816  
H340     H      0.377260000000     0.948100000000     0.382220000000     0.0430826  
H341     H      0.435580000000     0.947590000000     0.375170000000     0.0425887  
H342     H      0.414530000000     0.466990000000     0.344390000000     0.0389434  
H343     H      0.379560000000     0.548590000000     0.387610000000     0.0431393  
H344     H      0.412690000000     0.528510000000     0.345590000000     0.0385161  
H345     H      0.150640000000     0.533710000000     0.353780000000     0.0398572  
H346     H      0.153160000000     0.970580000000     0.358400000000     0.0401881  
H347     H      0.184950000000     0.954560000000     0.403490000000     0.0428211  
H348     H      0.127740000000     0.553520000000     0.382840000000     0.0432093  
H349     H      0.185450000000     0.554850000000     0.393080000000     0.0426198  
H350     H      0.162900000000     0.538410000000     0.424510000000     0.0390999  
H351     H      0.129720000000     0.952960000000     0.388500000000     0.042929   
H352     H      0.161250000000     0.977270000000     0.429610000000     0.0400569  
H353     H      0.181380000000     0.751650000000     0.749320000000     0.0419621  
H354     H      0.226470000000     0.706880000000     0.749960000000     0.0394945  
H355     H      0.262080000000     0.719960000000     0.708580000000     0.0406135  
H356     H      0.190290000000     0.786720000000     0.771100000000     0.0393361  
H357     H      0.194880000000     0.793880000000     0.712620000000     0.0393203  
H358     H      0.230950000000     0.800940000000     0.733110000000     0.0418321  
H359     H      0.262300000000     0.717470000000     0.768550000000     0.0409538  
H360     H      0.274230000000     0.754850000000     0.728290000000     0.0393041  
H361     H      0.230330000000     0.550290000000     0.769130000000     0.0391951  
H362     H      0.189850000000     0.503230000000     0.765120000000     0.0408652  
H363     H      0.211150000000     0.961180000000     0.732450000000     0.0401585  
H364     H      0.263280000000     0.544910000000     0.794430000000     0.0395056  
H365     H      0.274590000000     0.538560000000     0.736300000000     0.0413145  
H366     H      0.284700000000     0.005470000000     0.759980000000     0.0405242  
H367     H      0.197500000000     0.969640000000     0.789660000000     0.0383735  
H368     H      0.243770000000     0.956440000000     0.758660000000     0.0426211  
H369     H      0.201860000000     0.875490000000     0.845900000000     0.0398402  
H370     H      0.263520000000     0.873470000000     0.837710000000     0.0396127  
H371     H      0.286940000000     0.905880000000     0.877850000000     0.0430205  
H372     H      0.185520000000     0.849870000000     0.874930000000     0.0432283  
H373     H      0.187950000000     0.904270000000     0.893680000000     0.0436806  
H374     H      0.211460000000     0.878730000000     0.917190000000     0.0405141  
H375     H      0.285130000000     0.848610000000     0.863690000000     0.0429621  
H376     H      0.272910000000     0.880970000000     0.908660000000     0.0397053  
H377     H      0.259690000000     0.625980000000     0.840520000000     0.0389382  
H378     H      0.198260000000     0.627680000000     0.842310000000     0.0391985  
H379     H      0.181390000000     0.598940000000     0.888480000000     0.0428621  
H380     H      0.280690000000     0.653720000000     0.863970000000     0.0430653  
H381     H      0.281760000000     0.601250000000     0.887720000000     0.0431213  
H382     H      0.261830000000     0.628710000000     0.912460000000     0.0405064  
H383     H      0.180430000000     0.654610000000     0.869150000000     0.0427794  
H384     H      0.200310000000     0.626150000000     0.914240000000     0.0396217  
H385     H      0.029270000000     0.768350000000     0.750380000000     0.04157    
H386     H      0.486030000000     0.813660000000     0.754660000000     0.0400597  
H387     H      0.440880000000     0.795090000000     0.726820000000     0.0403447  
H388     H      0.027180000000     0.737760000000     0.779570000000     0.0399099  
H389     H      0.007590000000     0.720320000000     0.727040000000     0.0400501  
H390     H      0.977830000000     0.718820000000     0.756990000000     0.0415687  
H391     H      0.456100000000     0.808230000000     0.783500000000     0.0401784  
H392     H      0.434690000000     0.764590000000     0.755030000000     0.0400607  
H393     H      0.997130000000     0.558110000000     0.766900000000     0.0395141  
H394     H      0.451390000000     0.514060000000     0.767780000000     0.0415855  
H395     H      0.466070000000     0.969150000000     0.735010000000     0.0391329  
H396     H      0.031650000000     0.548920000000     0.788510000000     0.0411587  
H397     H      0.035230000000     0.541030000000     0.729290000000     0.0408993  
H398     H      0.045170000000     0.007700000000     0.752630000000     0.039159   
H399     H      0.458690000000     0.980770000000     0.792710000000     0.039105   
H400     H      0.500750000000     0.962870000000     0.758040000000     0.0421287  
H401     H      0.466360000000     0.893610000000     0.855500000000     0.0401066  
H402     H      0.028590000000     0.891570000000     0.848860000000     0.0401206  
H403     H      0.050940000000     0.924710000000     0.889180000000     0.043032   
H404     H      0.449500000000     0.868660000000     0.884840000000     0.0433485  
H405     H      0.451410000000     0.923280000000     0.902610000000     0.0433614  
H406     H      0.475010000000     0.898400000000     0.926800000000     0.0399546  
H407     H      0.049510000000     0.867380000000     0.876050000000     0.0431425  
H408     H      0.035410000000     0.900550000000     0.919910000000     0.0392482  
H409     H      0.023280000000     0.649250000000     0.841860000000     0.0388875  
H410     H      0.462280000000     0.651510000000     0.842320000000     0.0388128  
H411     H      0.444050000000     0.616890000000     0.883250000000     0.0428584  
H412     H      0.044150000000     0.673540000000     0.869030000000     0.042951   
H413     H      0.044340000000     0.618630000000     0.885620000000     0.043431   
H414     H      0.024380000000     0.642850000000     0.913550000000     0.0410361  
H415     H      0.443820000000     0.674780000000     0.872060000000     0.0426861  
H416     H      0.461650000000     0.640310000000     0.913380000000     0.0399196  
H417     H      0.204220000000     0.747700000000     0.243570000000     0.0410013  
H418     H      0.248020000000     0.703480000000     0.240760000000     0.0410725  
H419     H      0.294430000000     0.724060000000     0.214270000000     0.0396093  
H420     H      0.209140000000     0.777880000000     0.272470000000     0.0400074  
H421     H      0.223040000000     0.794400000000     0.217080000000     0.0397455  
H422     H      0.254340000000     0.798150000000     0.244770000000     0.0408517  
H423     H      0.279380000000     0.706420000000     0.268860000000     0.0396577  
H424     H      0.298480000000     0.754320000000     0.243590000000     0.0410324  
H425     H      0.273510000000     0.789120000000     0.997240000000     0.0408265  
H426     H      0.211150000000     0.787850000000     0.002110000000     0.0399184  
H427     H      0.190470000000     0.747080000000     0.968290000000     0.042952   
H428     H      0.294570000000     0.759330000000     0.017920000000     0.0431998  
H429     H      0.290370000000     0.749180000000     0.960410000000     0.0427962  
H430     H      0.273680000000     0.718760000000     0.984050000000     0.039678   
H431     H      0.194700000000     0.757310000000     0.025760000000     0.0430288  
H432     H      0.211830000000     0.717490000000     0.988950000000     0.0398576  
H433     H      0.220380000000     0.015810000000     0.266140000000     0.0394648  
H434     H      0.266630000000     0.557780000000     0.257650000000     0.0393783  
H435     H      0.308360000000     0.540140000000     0.290430000000     0.0405511  
H436     H      0.221140000000     0.982100000000     0.240640000000     0.0404177  
H437     H      0.238130000000     0.969210000000     0.295220000000     0.0396514  
H438     H      0.268580000000     0.962650000000     0.266750000000     0.0426422  
H439     H      0.297130000000     0.546520000000     0.231340000000     0.0407697  
H440     H      0.314950000000     0.506500000000     0.266360000000     0.039605   
H441     H      0.211080000000     0.530870000000     0.011140000000     0.0406202  
H442     H      0.274190000000     0.531160000000     0.006810000000     0.0395541  
H443     H      0.295310000000     0.489610000000     0.039700000000     0.042753   
H444     H      0.191250000000     0.000850000000     0.989520000000     0.0435143  
H445     H      0.195220000000     0.989180000000     0.046770000000     0.0427417  
H446     H      0.213560000000     0.960240000000     0.022520000000     0.0386867  
H447     H      0.291260000000     0.501450000000     0.982570000000     0.043002   
H448     H      0.274050000000     0.960490000000     0.018210000000     0.0391665  
H449     H      0.224100000000     0.885280000000     0.100900000000     0.0409428  
H450     H      0.286120000000     0.883420000000     0.099190000000     0.0400937  
H451     H      0.305320000000     0.908930000000     0.146550000000     0.0432147  
H452     H      0.204560000000     0.856020000000     0.123740000000     0.0432292  
H453     H      0.205070000000     0.906760000000     0.151270000000     0.0428108  
H454     H      0.226740000000     0.877800000000     0.172510000000     0.0389594  
H455     H      0.304960000000     0.854700000000     0.123290000000     0.0431348  
H456     H      0.287090000000     0.880180000000     0.171120000000     0.0394689  
H457     H      0.221500000000     0.644750000000     0.161240000000     0.039952   
H458     H      0.285030000000     0.642070000000     0.152430000000     0.0397249  
H459     H      0.297840000000     0.600990000000     0.115010000000     0.04302    
H460     H      0.199940000000     0.661000000000     0.129110000000     0.0428192  
H461     H      0.199190000000     0.602050000000     0.131960000000     0.0427744  
H462     H      0.212470000000     0.617720000000     0.095230000000     0.0391852  
H463     H      0.298940000000     0.658710000000     0.116360000000     0.0428056  
H464     H      0.273620000000     0.618350000000     0.085480000000     0.0395625  
H465     H      0.052780000000     0.730270000000     0.251780000000     0.0413965  
H466     H      0.507950000000     0.686650000000     0.248280000000     0.0389092  
H467     H      0.468110000000     0.702640000000     0.284250000000     0.0407977  
H468     H      0.048160000000     0.763850000000     0.226480000000     0.0398473  
H469     H      0.036080000000     0.775900000000     0.282760000000     0.0393819  
H470     H      0.003020000000     0.781670000000     0.257300000000     0.0422246  
H471     H      0.474710000000     0.695950000000     0.224700000000     0.0401844  
H472     H      0.458260000000     0.735850000000     0.260700000000     0.0398642  
H473     H      0.471150000000     0.720570000000     0.006360000000     0.0400544  
H474     H      0.033630000000     0.721030000000     0.003200000000     0.0401938  
H475     H      0.050940000000     0.766590000000     0.973660000000     0.0428203  
H476     H      0.453480000000     0.747090000000     0.033690000000     0.0430771  
H477     H      0.450800000000     0.765510000000     0.978060000000     0.0427699  
H478     H      0.470860000000     0.792090000000     0.003610000000     0.038872   
H479     H      0.053560000000     0.747570000000     0.028900000000     0.0430586  
H480     H      0.032580000000     0.792580000000     0.001060000000     0.0390034  
H481     H      0.070860000000     0.493310000000     0.257140000000     0.0401677  
H482     H      0.026670000000     0.537870000000     0.256430000000     0.0417091  
H483     H      0.477370000000     0.517840000000     0.234670000000     0.0401147  
H484     H      0.066160000000     0.962510000000     0.285320000000     0.0400996  
H485     H      0.050010000000     0.949110000000     0.228990000000     0.0402429  
H486     H      0.520810000000     0.942900000000     0.258410000000     0.0402836  
H487     H      0.497530000000     0.535490000000     0.286910000000     0.0399569  
H488     H      0.476580000000     0.987040000000     0.263690000000     0.0440234  
H489     H      0.471370000000     0.975700000000     0.010480000000     0.0400994  
H490     H      0.033670000000     0.975880000000     0.007810000000     0.0403643  
H491     H      0.051590000000     0.524550000000     0.983530000000     0.0428324  
H492     H      0.453520000000     0.999050000000     0.040520000000     0.0429214  
H493     H      0.451270000000     0.024230000000     0.987750000000     0.0435279  
H494     H      0.472400000000     0.547080000000     0.015980000000     0.0393432  
H495     H      0.053850000000     0.499310000000     0.036230000000     0.0431121  
H496     H      0.032700000000     0.547240000000     0.013450000000     0.0387156  
H497     H      0.038230000000     0.857800000000     0.165570000000     0.0393037  
H498     H      0.476620000000     0.855380000000     0.170800000000     0.0396864  
H499     H      0.454930000000     0.891650000000     0.133030000000     0.0431783  
H500     H      0.056000000000     0.834950000000     0.135100000000     0.04285    
H501     H      0.054580000000     0.890770000000     0.121390000000     0.0432035  
H502     H      0.031920000000     0.867770000000     0.094550000000     0.0404208  
H503     H      0.455900000000     0.833330000000     0.141670000000     0.0430044  
H504     H      0.470250000000     0.869730000000     0.100590000000     0.0395674  
H505     H      0.042540000000     0.610890000000     0.167700000000     0.0396093  
H506     H      0.481200000000     0.613100000000     0.167820000000     0.0392296  
H507     H      0.460610000000     0.639350000000     0.120620000000     0.0430728  
H508     H      0.060970000000     0.584590000000     0.140620000000     0.0428503  
H509     H      0.061010000000     0.640760000000     0.122790000000     0.0430237  
H510     H      0.042410000000     0.614500000000     0.095800000000     0.0393705  
H511     H      0.460570000000     0.586260000000     0.143010000000     0.0427958  
H512     H      0.481170000000     0.612460000000     0.095790000000     0.0401405  
H513     H      0.845910000000     0.285270000000     0.584160000000     0.0397767  
H514     H      0.845870000000     0.223490000000     0.583700000000     0.0395911  
H515     H      0.875470000000     0.203480000000     0.628220000000     0.0426637  
H516     H      0.820420000000     0.304580000000     0.611360000000     0.0426661  
H517     H      0.875650000000     0.304260000000     0.629090000000     0.0432529  
H518     H      0.850030000000     0.284900000000     0.656030000000     0.0393875  
H519     H      0.820260000000     0.203770000000     0.610420000000     0.0428904  
H520     H      0.849900000000     0.222480000000     0.655600000000     0.0394275  
H521     H      0.593640000000     0.224930000000     0.662150000000     0.0389783  
H522     H      0.593560000000     0.286950000000     0.658800000000     0.0393559  
H523     H      0.625850000000     0.304070000000     0.615130000000     0.0431587  
H524     H      0.569990000000     0.204060000000     0.634510000000     0.0428302  
H525     H      0.626450000000     0.203580000000     0.620980000000     0.0430202  
H526     H      0.602600000000     0.220550000000     0.590890000000     0.0401028  
H527     H      0.569620000000     0.304620000000     0.629120000000     0.0426     
H528     H      0.602050000000     0.283460000000     0.587370000000     0.0401375  
H529     H      0.881500000000     0.470510000000     0.602610000000     0.0398983  
H530     H      0.881250000000     0.033030000000     0.605250000000     0.0395732  
H531     H      0.849160000000     0.049910000000     0.649420000000     0.0432378  
H532     H      0.905870000000     0.450290000000     0.630110000000     0.0431884  
H533     H      0.849920000000     0.449190000000     0.645150000000     0.0427556  
H534     H      0.873980000000     0.467790000000     0.674180000000     0.0394999  
H535     H      0.905290000000     0.050980000000     0.634660000000     0.0426905  
H536     H      0.873460000000     0.029340000000     0.676710000000     0.0389652  
H537     H      0.633660000000     0.469370000000     0.597750000000     0.0396684  
H538     H      0.634220000000     0.031210000000     0.598050000000     0.0395004  
H539     H      0.599880000000     0.050620000000     0.639090000000     0.0429909  
H540     H      0.656070000000     0.449560000000     0.627260000000     0.0429438  
H541     H      0.599320000000     0.449870000000     0.638810000000     0.0428714  
H542     H      0.621980000000     0.468680000000     0.668810000000     0.0397635  
H543     H      0.656770000000     0.050350000000     0.627860000000     0.0430408  
H544     H      0.622210000000     0.031400000000     0.668980000000     0.0389642  
H545     H      0.772010000000     0.278170000000     0.493390000000     0.0401353  
H546     H      0.770210000000     0.217000000000     0.495450000000     0.0399347  
H547     H      0.720730000000     0.199610000000     0.518150000000     0.0431337  
H548     H      0.751000000000     0.297690000000     0.462680000000     0.0429692  
H549     H      0.723480000000     0.300470000000     0.514040000000     0.043108   
H550     H      0.701280000000     0.279980000000     0.484860000000     0.0400558  
H551     H      0.747680000000     0.196820000000     0.466290000000     0.042915   
H552     H      0.699410000000     0.218880000000     0.487490000000     0.0400642  
H553     H      0.811000000000     0.531510000000     0.515670000000     0.0392381  
H554     H      0.811880000000     0.471030000000     0.515260000000     0.0392679  
H555     H      0.765390000000     0.449960000000     0.540460000000     0.0430064  
H556     H      0.787100000000     0.051550000000     0.487550000000     0.0429512  
H557     H      0.763960000000     0.050830000000     0.541220000000     0.0430256  
H558     H      0.739820000000     0.031770000000     0.512630000000     0.0402072  
H559     H      0.788590000000     0.450680000000     0.486830000000     0.042912   
H560     H      0.740750000000     0.968750000000     0.512140000000     0.0407445  
H561     H      0.021260000000     0.280220000000     0.504500000000     0.0399073  
H562     H      0.520050000000     0.218340000000     0.507040000000     0.0400735  
H563     H      0.473210000000     0.200610000000     0.534330000000     0.0430627  
H564     H      0.996470000000     0.299050000000     0.476360000000     0.0431146  
H565     H      0.975610000000     0.301400000000     0.531030000000     0.0429613  
H566     H      0.950050000000     0.281610000000     0.504270000000     0.0399084  
H567     H      0.494790000000     0.198270000000     0.480180000000     0.0429778  
H568     H      0.448820000000     0.219840000000     0.506090000000     0.0398604  
H569     H      0.868860000000     0.275770000000     0.332450000000     0.0391931  
H570     H      0.871020000000     0.214100000000     0.337500000000     0.0390296  
H571     H      0.900660000000     0.197410000000     0.383760000000     0.0431307  
H572     H      0.844840000000     0.296520000000     0.359890000000     0.0428828  
H573     H      0.902120000000     0.297560000000     0.372730000000     0.0429632  
H574     H      0.878060000000     0.282210000000     0.403520000000     0.0397323  
H575     H      0.846210000000     0.195920000000     0.366080000000     0.0428137  
H576     H      0.875830000000     0.219770000000     0.409120000000     0.0405222  
H577     H      0.617910000000     0.209110000000     0.411360000000     0.0391929  
H578     H      0.620200000000     0.270990000000     0.413030000000     0.0398129  
H579     H      0.651180000000     0.292250000000     0.369820000000     0.042877   
H580     H      0.594480000000     0.191490000000     0.381290000000     0.042874   
H581     H      0.651970000000     0.191520000000     0.369740000000     0.0430355  
H582     H      0.628670000000     0.210190000000     0.340230000000     0.0398658  
H583     H      0.596190000000     0.292150000000     0.385870000000     0.0429386  
H584     H      0.626970000000     0.273070000000     0.341390000000     0.0394305  
H585     H      0.981110000000     0.529420000000     0.509950000000     0.0399829  
H586     H      0.482470000000     0.466920000000     0.511100000000     0.0398306  
H587     H      0.526930000000     0.449150000000     0.480820000000     0.0429726  
H588     H      0.006850000000     0.049600000000     0.536200000000     0.0432513  
H589     H      0.025710000000     0.049810000000     0.481050000000     0.0431608  
H590     H      0.052310000000     0.030960000000     0.507450000000     0.0398333  
H591     H      0.509930000000     0.448970000000     0.537200000000     0.0428222  
H592     H      0.553550000000     0.968470000000     0.506790000000     0.0399813  
H593     H      0.898720000000     0.464310000000     0.414480000000     0.0398532  
H594     H      0.901720000000     0.527890000000     0.416710000000     0.0409855  
H595     H      0.935220000000     0.048370000000     0.374930000000     0.0428101  
H596     H      0.877260000000     0.448100000000     0.382220000000     0.0430438  
H597     H      0.935590000000     0.447590000000     0.375170000000     0.0426371  
H598     H      0.914530000000     0.966990000000     0.344390000000     0.0393003  
H599     H      0.879560000000     0.048590000000     0.387610000000     0.0432359  
H600     H      0.912690000000     0.028510000000     0.345590000000     0.0381836  
H601     H      0.650640000000     0.033710000000     0.353780000000     0.0395256  
H602     H      0.653160000000     0.470580000000     0.358400000000     0.0398381  
H603     H      0.684950000000     0.454570000000     0.403490000000     0.0429373  
H604     H      0.627740000000     0.053520000000     0.382840000000     0.0432149  
H605     H      0.685450000000     0.054850000000     0.393080000000     0.042642   
H606     H      0.662900000000     0.038410000000     0.424510000000     0.0387808  
H607     H      0.629720000000     0.452960000000     0.388500000000     0.0430382  
H608     H      0.661250000000     0.477280000000     0.429610000000     0.0396418  
H609     H      0.681380000000     0.251650000000     0.749320000000     0.0420044  
H610     H      0.726470000000     0.206870000000     0.749960000000     0.0394797  
H611     H      0.762080000000     0.219960000000     0.708580000000     0.0406239  
H612     H      0.690290000000     0.286720000000     0.771100000000     0.0393575  
H613     H      0.694880000000     0.293880000000     0.712620000000     0.0393149  
H614     H      0.730950000000     0.300940000000     0.733110000000     0.0418164  
H615     H      0.762300000000     0.217470000000     0.768550000000     0.0409576  
H616     H      0.774230000000     0.254850000000     0.728290000000     0.0393081  
H617     H      0.730330000000     0.050290000000     0.769130000000     0.0389266  
H618     H      0.689850000000     0.003230000000     0.765120000000     0.0383146  
H619     H      0.711150000000     0.461180000000     0.732450000000     0.0396814  
H620     H      0.763280000000     0.044910000000     0.794430000000     0.0393526  
H621     H      0.774590000000     0.038560000000     0.736300000000     0.04141    
H622     H      0.784700000000     0.505470000000     0.759980000000     0.0408984  
H623     H      0.697500000000     0.469640000000     0.789660000000     0.0386924  
H624     H      0.743770000000     0.456440000000     0.758660000000     0.042022   
H625     H      0.701860000000     0.375490000000     0.845900000000     0.0397172  
H626     H      0.763520000000     0.373470000000     0.837710000000     0.0394966  
H627     H      0.786940000000     0.405880000000     0.877850000000     0.0427475  
H628     H      0.685520000000     0.349870000000     0.874930000000     0.0431745  
H629     H      0.687950000000     0.404270000000     0.893680000000     0.0434224  
H630     H      0.711460000000     0.378720000000     0.917190000000     0.0403777  
H631     H      0.785130000000     0.348610000000     0.863690000000     0.0429068  
H632     H      0.772910000000     0.380970000000     0.908660000000     0.0395593  
H633     H      0.759690000000     0.125980000000     0.840520000000     0.0389197  
H634     H      0.698260000000     0.127680000000     0.842310000000     0.0391921  
H635     H      0.681390000000     0.098940000000     0.888480000000     0.042783   
H636     H      0.780690000000     0.153720000000     0.863970000000     0.0430435  
H637     H      0.781760000000     0.101250000000     0.887720000000     0.0430756  
H638     H      0.761830000000     0.128710000000     0.912460000000     0.040487   
H639     H      0.680430000000     0.154620000000     0.869150000000     0.0427776  
H640     H      0.700310000000     0.126150000000     0.914240000000     0.0395694  
H641     H      0.529270000000     0.268360000000     0.750380000000     0.041567   
H642     H      0.986030000000     0.313660000000     0.754660000000     0.0399995  
H643     H      0.940880000000     0.295090000000     0.726820000000     0.0403394  
H644     H      0.527180000000     0.237760000000     0.779570000000     0.0399286  
H645     H      0.507590000000     0.220320000000     0.727040000000     0.0399441  
H646     H      0.477840000000     0.218820000000     0.756990000000     0.0415698  
H647     H      0.956110000000     0.308230000000     0.783500000000     0.0401431  
H648     H      0.934690000000     0.264590000000     0.755030000000     0.0400793  
H649     H      0.497130000000     0.058110000000     0.766900000000     0.0395418  
H650     H      0.951390000000     0.014060000000     0.767780000000     0.0392344  
H651     H      0.966070000000     0.469150000000     0.735010000000     0.0387147  
H652     H      0.531650000000     0.048910000000     0.788510000000     0.0410943  
H653     H      0.535230000000     0.041030000000     0.729290000000     0.0408612  
H654     H      0.545170000000     0.507700000000     0.752630000000     0.0396947  
H655     H      0.958690000000     0.480770000000     0.792710000000     0.0393215  
H656     H      0.000750000000     0.462870000000     0.758040000000     0.0418587  
H657     H      0.966360000000     0.393610000000     0.855500000000     0.0399395  
H658     H      0.528590000000     0.391570000000     0.848860000000     0.039952   
H659     H      0.550940000000     0.424710000000     0.889180000000     0.0427192  
H660     H      0.949500000000     0.368660000000     0.884840000000     0.0432679  
H661     H      0.951410000000     0.423280000000     0.902610000000     0.0431011  
H662     H      0.975010000000     0.398400000000     0.926800000000     0.0398198  
H663     H      0.549510000000     0.367370000000     0.876050000000     0.0430866  
H664     H      0.535410000000     0.400550000000     0.919910000000     0.0390697  
H665     H      0.523280000000     0.149250000000     0.841860000000     0.0388796  
H666     H      0.962280000000     0.151510000000     0.842320000000     0.0387722  
H667     H      0.944050000000     0.116890000000     0.883250000000     0.0428106  
H668     H      0.544150000000     0.173540000000     0.869030000000     0.0429687  
H669     H      0.544340000000     0.118630000000     0.885620000000     0.0433999  
H670     H      0.524380000000     0.142850000000     0.913550000000     0.0409926  
H671     H      0.943820000000     0.174780000000     0.872060000000     0.0426537  
H672     H      0.961640000000     0.140310000000     0.913380000000     0.0398794  
H673     H      0.704220000000     0.247700000000     0.243570000000     0.0409878  
H674     H      0.748020000000     0.203480000000     0.240760000000     0.0410859  
H675     H      0.794430000000     0.224060000000     0.214270000000     0.0396171  
H676     H      0.709140000000     0.277880000000     0.272470000000     0.0399872  
H677     H      0.723040000000     0.294400000000     0.217080000000     0.0397321  
H678     H      0.754340000000     0.298150000000     0.244770000000     0.0408304  
H679     H      0.779380000000     0.206420000000     0.268860000000     0.039685   
H680     H      0.798480000000     0.254320000000     0.243590000000     0.0410367  
H681     H      0.773510000000     0.289120000000     0.997240000000     0.0407996  
H682     H      0.711150000000     0.287850000000     0.002110000000     0.0399007  
H683     H      0.690470000000     0.247080000000     0.968290000000     0.0429215  
H684     H      0.794570000000     0.259320000000     0.017920000000     0.043197   
H685     H      0.790370000000     0.249180000000     0.960410000000     0.0427365  
H686     H      0.773680000000     0.218760000000     0.984050000000     0.0396045  
H687     H      0.694700000000     0.257310000000     0.025760000000     0.043024   
H688     H      0.711830000000     0.217490000000     0.988950000000     0.039817   
H689     H      0.720380000000     0.515810000000     0.266140000000     0.0418009  
H690     H      0.766630000000     0.057780000000     0.257650000000     0.039305   
H691     H      0.808360000000     0.040140000000     0.290430000000     0.0404758  
H692     H      0.721140000000     0.482100000000     0.240640000000     0.0406607  
H693     H      0.738120000000     0.469210000000     0.295220000000     0.0392307  
H694     H      0.768580000000     0.462650000000     0.266750000000     0.0422334  
H695     H      0.797130000000     0.046520000000     0.231340000000     0.0406513  
H696     H      0.814950000000     0.006500000000     0.266360000000     0.0389966  
H697     H      0.711080000000     0.030870000000     0.011140000000     0.0407035  
H698     H      0.774190000000     0.031160000000     0.006810000000     0.0396629  
H699     H      0.795310000000     0.989610000000     0.039700000000     0.0429184  
H700     H      0.691250000000     0.500850000000     0.989520000000     0.0436224  
H701     H      0.695220000000     0.489180000000     0.046770000000     0.0426005  
H702     H      0.713560000000     0.460240000000     0.022520000000     0.0387566  
H703     H      0.791260000000     0.001450000000     0.982570000000     0.042888   
H704     H      0.774040000000     0.460490000000     0.018210000000     0.0392368  
H705     H      0.724100000000     0.385280000000     0.100900000000     0.0408802  
H706     H      0.786120000000     0.383420000000     0.099190000000     0.0400103  
H707     H      0.805320000000     0.408930000000     0.146550000000     0.0430277  
H708     H      0.704560000000     0.356020000000     0.123740000000     0.0431968  
H709     H      0.705070000000     0.406760000000     0.151270000000     0.0426369  
H710     H      0.726740000000     0.377800000000     0.172510000000     0.0388679  
H711     H      0.804960000000     0.354700000000     0.123290000000     0.0430934  
H712     H      0.787100000000     0.380180000000     0.171120000000     0.0393734  
H713     H      0.721500000000     0.144750000000     0.161240000000     0.0399358  
H714     H      0.785030000000     0.142070000000     0.152430000000     0.0397076  
H715     H      0.797840000000     0.100990000000     0.115010000000     0.0428902  
H716     H      0.699940000000     0.161000000000     0.129110000000     0.0427949  
H717     H      0.699190000000     0.102050000000     0.131960000000     0.0426517  
H718     H      0.712470000000     0.117720000000     0.095230000000     0.0390721  
H719     H      0.798940000000     0.158710000000     0.116360000000     0.0427762  
H720     H      0.773610000000     0.118350000000     0.085480000000     0.0394628  
H721     H      0.552780000000     0.230270000000     0.251780000000     0.0413816  
H722     H      0.007950000000     0.186650000000     0.248280000000     0.0389968  
H723     H      0.968100000000     0.202640000000     0.284250000000     0.0407654  
H724     H      0.548160000000     0.263850000000     0.226480000000     0.0398441  
H725     H      0.536080000000     0.275900000000     0.282760000000     0.0393938  
H726     H      0.503020000000     0.281660000000     0.257300000000     0.0422157  
H727     H      0.974710000000     0.195950000000     0.224700000000     0.040183   
H728     H      0.958260000000     0.235850000000     0.260700000000     0.0398401  
H729     H      0.971150000000     0.220570000000     0.006360000000     0.0400141  
H730     H      0.533630000000     0.221030000000     0.003200000000     0.0401669  
H731     H      0.550940000000     0.266590000000     0.973660000000     0.0428167  
H732     H      0.953470000000     0.247090000000     0.033690000000     0.0430332  
H733     H      0.950800000000     0.265510000000     0.978060000000     0.0428164  
H734     H      0.970860000000     0.292090000000     0.003610000000     0.0389079  
H735     H      0.553560000000     0.247570000000     0.028900000000     0.0430505  
H736     H      0.532580000000     0.292580000000     0.001060000000     0.0389876  
H737     H      0.570860000000     0.993310000000     0.257140000000     0.0406298  
H738     H      0.526670000000     0.037870000000     0.256430000000     0.0411158  
H739     H      0.977370000000     0.017840000000     0.234670000000     0.0404613  
H740     H      0.566160000000     0.462510000000     0.285320000000     0.040136   
H741     H      0.550010000000     0.449110000000     0.228990000000     0.0400628  
H742     H      0.020810000000     0.442910000000     0.258410000000     0.0400886  
H743     H      0.997530000000     0.035490000000     0.286910000000     0.03938    
H744     H      0.976570000000     0.487040000000     0.263690000000     0.0414407  
H745     H      0.971370000000     0.475690000000     0.010480000000     0.0401293  
H746     H      0.533670000000     0.475880000000     0.007810000000     0.0403868  
H747     H      0.551590000000     0.024550000000     0.983530000000     0.042816   
H748     H      0.953530000000     0.499050000000     0.040520000000     0.0427883  
H749     H      0.951270000000     0.524230000000     0.987750000000     0.0435517  
H750     H      0.972400000000     0.047080000000     0.015980000000     0.0394255  
H751     H      0.553850000000     0.999300000000     0.036230000000     0.0432672  
H752     H      0.532710000000     0.047240000000     0.013450000000     0.038804   
H753     H      0.538230000000     0.357800000000     0.165570000000     0.0392793  
H754     H      0.976620000000     0.355380000000     0.170800000000     0.0396533  
H755     H      0.954930000000     0.391650000000     0.133030000000     0.043077   
H756     H      0.556000000000     0.334950000000     0.135100000000     0.0428411  
H757     H      0.554580000000     0.390770000000     0.121390000000     0.0431221  
H758     H      0.531920000000     0.367770000000     0.094550000000     0.0403531  
H759     H      0.955900000000     0.333330000000     0.141670000000     0.0429894  
H760     H      0.970250000000     0.369730000000     0.100590000000     0.0395012  
H761     H      0.542540000000     0.110890000000     0.167700000000     0.0395051  
H762     H      0.981200000000     0.113100000000     0.167820000000     0.0391373  
H763     H      0.960610000000     0.139350000000     0.120620000000     0.0430341  
H764     H      0.560970000000     0.084590000000     0.140620000000     0.0426221  
H765     H      0.561010000000     0.140760000000     0.122790000000     0.0429763  
H766     H      0.542410000000     0.114500000000     0.095800000000     0.0392111  
H767     H      0.960570000000     0.086260000000     0.143010000000     0.0425706  
H768     H      0.981170000000     0.112460000000     0.095790000000     0.0399806  
H769     H      0.845910000000     0.785270000000     0.584160000000     0.039772   
H770     H      0.845870000000     0.723490000000     0.583700000000     0.0395824  
H771     H      0.875470000000     0.703480000000     0.628220000000     0.0426639  
H772     H      0.820420000000     0.804580000000     0.611360000000     0.0426653  
H773     H      0.875650000000     0.804260000000     0.629090000000     0.0432644  
H774     H      0.850030000000     0.784900000000     0.656030000000     0.0393925  
H775     H      0.820260000000     0.703770000000     0.610420000000     0.042878   
H776     H      0.849900000000     0.722480000000     0.655600000000     0.0394229  
H777     H      0.593640000000     0.724930000000     0.662150000000     0.0389719  
H778     H      0.593560000000     0.786950000000     0.658800000000     0.0393641  
H779     H      0.625850000000     0.804070000000     0.615130000000     0.043168   
H780     H      0.569990000000     0.704060000000     0.634510000000     0.0428248  
H781     H      0.626450000000     0.703580000000     0.620980000000     0.0430247  
H782     H      0.602600000000     0.720560000000     0.590890000000     0.0401104  
H783     H      0.569620000000     0.804620000000     0.629120000000     0.0426089  
H784     H      0.602050000000     0.783460000000     0.587370000000     0.0401342  
H785     H      0.881500000000     0.970510000000     0.602610000000     0.0400455  
H786     H      0.881250000000     0.533030000000     0.605250000000     0.0400892  
H787     H      0.849160000000     0.549910000000     0.649420000000     0.0430484  
H788     H      0.905870000000     0.950290000000     0.630110000000     0.0429753  
H789     H      0.849920000000     0.949190000000     0.645150000000     0.0428393  
H790     H      0.873980000000     0.967780000000     0.674180000000     0.0400872  
H791     H      0.905290000000     0.550980000000     0.634660000000     0.0427524  
H792     H      0.873460000000     0.529340000000     0.676710000000     0.039109   
H793     H      0.633660000000     0.969370000000     0.597750000000     0.0402697  
H794     H      0.634220000000     0.531210000000     0.598050000000     0.0396627  
H795     H      0.599880000000     0.550620000000     0.639090000000     0.043044   
H796     H      0.656070000000     0.949560000000     0.627260000000     0.0430605  
H797     H      0.599320000000     0.949870000000     0.638810000000     0.0427139  
H798     H      0.621980000000     0.968680000000     0.668810000000     0.0399743  
H799     H      0.656770000000     0.550350000000     0.627860000000     0.04286    
H800     H      0.622210000000     0.531400000000     0.668980000000     0.03945    
H801     H      0.772010000000     0.778170000000     0.493390000000     0.0401213  
H802     H      0.770210000000     0.717000000000     0.495450000000     0.0399415  
H803     H      0.720730000000     0.699610000000     0.518150000000     0.0431325  
H804     H      0.751000000000     0.797690000000     0.462680000000     0.0429655  
H805     H      0.723480000000     0.800480000000     0.514040000000     0.0431     
H806     H      0.701280000000     0.779970000000     0.484860000000     0.0400593  
H807     H      0.747680000000     0.696820000000     0.466290000000     0.0429263  
H808     H      0.699410000000     0.718880000000     0.487490000000     0.0400565  
H809     H      0.811000000000     0.031510000000     0.515670000000     0.038856   
H810     H      0.811880000000     0.971030000000     0.515260000000     0.0396294  
H811     H      0.765390000000     0.949960000000     0.540460000000     0.0429109  
H812     H      0.787100000000     0.551550000000     0.487550000000     0.0429376  
H813     H      0.763960000000     0.550830000000     0.541220000000     0.0430323  
H814     H      0.739820000000     0.531770000000     0.512630000000     0.0405539  
H815     H      0.788590000000     0.950680000000     0.486830000000     0.0427982  
H816     H      0.740750000000     0.468750000000     0.512140000000     0.0403801  
H817     H      0.021260000000     0.780220000000     0.504500000000     0.0398953  
H818     H      0.520050000000     0.718350000000     0.507040000000     0.040075   
H819     H      0.473210000000     0.700610000000     0.534330000000     0.04307    
H820     H      0.996470000000     0.799050000000     0.476360000000     0.0431144  
H821     H      0.975610000000     0.801400000000     0.531030000000     0.0429678  
H822     H      0.950050000000     0.781610000000     0.504270000000     0.0399072  
H823     H      0.494790000000     0.698270000000     0.480180000000     0.0429765  
H824     H      0.448820000000     0.719850000000     0.506090000000     0.039868   
H825     H      0.868860000000     0.775770000000     0.332450000000     0.0392199  
H826     H      0.871020000000     0.714100000000     0.337500000000     0.0390198  
H827     H      0.900660000000     0.697410000000     0.383760000000     0.0431293  
H828     H      0.844840000000     0.796520000000     0.359890000000     0.0429196  
H829     H      0.902120000000     0.797560000000     0.372730000000     0.0429651  
H830     H      0.878060000000     0.782210000000     0.403520000000     0.0397237  
H831     H      0.846210000000     0.695920000000     0.366080000000     0.042805   
H832     H      0.875830000000     0.719770000000     0.409120000000     0.0405189  
H833     H      0.617910000000     0.709110000000     0.411360000000     0.0391543  
H834     H      0.620200000000     0.770990000000     0.413030000000     0.0398069  
H835     H      0.651180000000     0.792250000000     0.369820000000     0.042887   
H836     H      0.594480000000     0.691490000000     0.381290000000     0.0428383  
H837     H      0.651970000000     0.691520000000     0.369740000000     0.0430535  
H838     H      0.628670000000     0.710190000000     0.340230000000     0.0398804  
H839     H      0.596190000000     0.792150000000     0.385870000000     0.0429394  
H840     H      0.626970000000     0.773070000000     0.341390000000     0.0394328  
H841     H      0.981110000000     0.029420000000     0.509950000000     0.0396119  
H842     H      0.482470000000     0.966920000000     0.511100000000     0.0401855  
H843     H      0.526930000000     0.949150000000     0.480820000000     0.0429567  
H844     H      0.006850000000     0.549600000000     0.536200000000     0.0431506  
H845     H      0.025710000000     0.549810000000     0.481050000000     0.0430611  
H846     H      0.052310000000     0.530960000000     0.507450000000     0.0401636  
H847     H      0.509930000000     0.948980000000     0.537200000000     0.0428385  
H848     H      0.553550000000     0.468470000000     0.506790000000     0.0396135  
H849     H      0.898720000000     0.964300000000     0.414480000000     0.0401765  
H850     H      0.901720000000     0.027890000000     0.416710000000     0.0405981  
H851     H      0.935220000000     0.548380000000     0.374930000000     0.0426752  
H852     H      0.877260000000     0.948100000000     0.382220000000     0.0430796  
H853     H      0.935590000000     0.947590000000     0.375170000000     0.0425868  
H854     H      0.914530000000     0.466990000000     0.344390000000     0.0389423  
H855     H      0.879560000000     0.548590000000     0.387610000000     0.0431375  
H856     H      0.912690000000     0.528510000000     0.345590000000     0.0385127  
H857     H      0.650640000000     0.533710000000     0.353780000000     0.0398594  
H858     H      0.653160000000     0.970580000000     0.358400000000     0.0401912  
H859     H      0.684950000000     0.954560000000     0.403490000000     0.0428202  
H860     H      0.627740000000     0.553520000000     0.382840000000     0.0432133  
H861     H      0.685450000000     0.554850000000     0.393080000000     0.0426188  
H862     H      0.662900000000     0.538410000000     0.424510000000     0.0390985  
H863     H      0.629720000000     0.952960000000     0.388500000000     0.0429333  
H864     H      0.661250000000     0.977270000000     0.429610000000     0.0400571  
H865     H      0.681380000000     0.751650000000     0.749320000000     0.0420012  
H866     H      0.726470000000     0.706880000000     0.749960000000     0.0394973  
H867     H      0.762080000000     0.719960000000     0.708580000000     0.0406102  
H868     H      0.690290000000     0.786720000000     0.771100000000     0.0393772  
H869     H      0.694880000000     0.793880000000     0.712620000000     0.0393225  
H870     H      0.730950000000     0.800940000000     0.733110000000     0.0418339  
H871     H      0.762300000000     0.717470000000     0.768550000000     0.0409661  
H872     H      0.774230000000     0.754850000000     0.728290000000     0.0393041  
H873     H      0.730330000000     0.550290000000     0.769130000000     0.0391925  
H874     H      0.689850000000     0.503230000000     0.765120000000     0.0408677  
H875     H      0.711150000000     0.961180000000     0.732450000000     0.0401637  
H876     H      0.763280000000     0.544910000000     0.794430000000     0.0395025  
H877     H      0.774590000000     0.538560000000     0.736300000000     0.0413118  
H878     H      0.784700000000     0.005470000000     0.759980000000     0.0405217  
H879     H      0.697500000000     0.969640000000     0.789660000000     0.0383724  
H880     H      0.743770000000     0.956440000000     0.758660000000     0.0426184  
H881     H      0.701860000000     0.875490000000     0.845900000000     0.0398401  
H882     H      0.763520000000     0.873470000000     0.837710000000     0.0396131  
H883     H      0.786940000000     0.905880000000     0.877850000000     0.0430197  
H884     H      0.685520000000     0.849870000000     0.874930000000     0.0432273  
H885     H      0.687950000000     0.904270000000     0.893680000000     0.0436793  
H886     H      0.711460000000     0.878730000000     0.917190000000     0.0405122  
H887     H      0.785130000000     0.848610000000     0.863690000000     0.042962   
H888     H      0.772910000000     0.880970000000     0.908660000000     0.0397038  
H889     H      0.759690000000     0.625980000000     0.840520000000     0.0389321  
H890     H      0.698260000000     0.627680000000     0.842310000000     0.0392029  
H891     H      0.681390000000     0.598940000000     0.888480000000     0.0428431  
H892     H      0.780690000000     0.653720000000     0.863970000000     0.0430605  
H893     H      0.781760000000     0.601250000000     0.887720000000     0.0431243  
H894     H      0.761830000000     0.628710000000     0.912460000000     0.0405163  
H895     H      0.680430000000     0.654610000000     0.869150000000     0.0427833  
H896     H      0.700310000000     0.626150000000     0.914240000000     0.0396023  
H897     H      0.529270000000     0.768350000000     0.750380000000     0.0415848  
H898     H      0.986030000000     0.813660000000     0.754660000000     0.0400452  
H899     H      0.940880000000     0.795090000000     0.726820000000     0.0403522  
H900     H      0.527180000000     0.737760000000     0.779570000000     0.0399315  
H901     H      0.507590000000     0.720320000000     0.727040000000     0.0399155  
H902     H      0.477840000000     0.718820000000     0.756990000000     0.0415392  
H903     H      0.956110000000     0.808230000000     0.783500000000     0.0401829  
H904     H      0.934690000000     0.764590000000     0.755030000000     0.0400673  
H905     H      0.497130000000     0.558110000000     0.766900000000     0.039602   
H906     H      0.951390000000     0.514060000000     0.767780000000     0.0415652  
H907     H      0.966070000000     0.969150000000     0.735010000000     0.0391506  
H908     H      0.531650000000     0.548920000000     0.788510000000     0.0411624  
H909     H      0.535230000000     0.541030000000     0.729290000000     0.0408799  
H910     H      0.545170000000     0.007700000000     0.752630000000     0.039141   
H911     H      0.958690000000     0.980770000000     0.792710000000     0.0390861  
H912     H      0.000750000000     0.962870000000     0.758040000000     0.042254   
H913     H      0.966360000000     0.893610000000     0.855500000000     0.0400901  
H914     H      0.528590000000     0.891570000000     0.848860000000     0.0401089  
H915     H      0.550940000000     0.924710000000     0.889180000000     0.0430238  
H916     H      0.949500000000     0.868660000000     0.884840000000     0.0433456  
H917     H      0.951410000000     0.923280000000     0.902610000000     0.0433765  
H918     H      0.975010000000     0.898400000000     0.926800000000     0.0399515  
H919     H      0.549510000000     0.867380000000     0.876050000000     0.0431497  
H920     H      0.535410000000     0.900550000000     0.919910000000     0.0392173  
H921     H      0.523280000000     0.649250000000     0.841860000000     0.0388804  
H922     H      0.962280000000     0.651510000000     0.842320000000     0.0387806  
H923     H      0.944050000000     0.616890000000     0.883250000000     0.0428597  
H924     H      0.544150000000     0.673540000000     0.869030000000     0.0429689  
H925     H      0.544340000000     0.618630000000     0.885620000000     0.0434292  
H926     H      0.524380000000     0.642850000000     0.913550000000     0.0410048  
H927     H      0.943820000000     0.674780000000     0.872060000000     0.0426606  
H928     H      0.961640000000     0.640310000000     0.913380000000     0.0399017  
H929     H      0.704220000000     0.747700000000     0.243570000000     0.0410025  
H930     H      0.748020000000     0.703480000000     0.240760000000     0.0410882  
H931     H      0.794430000000     0.724060000000     0.214270000000     0.0396031  
H932     H      0.709140000000     0.777880000000     0.272470000000     0.0400077  
H933     H      0.723040000000     0.794400000000     0.217080000000     0.0397437  
H934     H      0.754340000000     0.798150000000     0.244770000000     0.0408488  
H935     H      0.779380000000     0.706420000000     0.268860000000     0.039685   
H936     H      0.798480000000     0.754320000000     0.243590000000     0.0410282  
H937     H      0.773510000000     0.789120000000     0.997240000000     0.0408277  
H938     H      0.711150000000     0.787850000000     0.002110000000     0.0399248  
H939     H      0.690470000000     0.747080000000     0.968290000000     0.0429255  
H940     H      0.794570000000     0.759330000000     0.017920000000     0.0432136  
H941     H      0.790370000000     0.749180000000     0.960410000000     0.0427442  
H942     H      0.773680000000     0.718760000000     0.984050000000     0.0396244  
H943     H      0.694700000000     0.757310000000     0.025760000000     0.0430353  
H944     H      0.711830000000     0.717490000000     0.988950000000     0.0398345  
H945     H      0.720380000000     0.015810000000     0.266140000000     0.0394623  
H946     H      0.766630000000     0.557780000000     0.257650000000     0.0393785  
H947     H      0.808360000000     0.540140000000     0.290430000000     0.0405502  
H948     H      0.721140000000     0.982100000000     0.240640000000     0.0404201  
H949     H      0.738120000000     0.969210000000     0.295220000000     0.0396359  
H950     H      0.768580000000     0.962650000000     0.266750000000     0.0426365  
H951     H      0.797130000000     0.546520000000     0.231340000000     0.0407693  
H952     H      0.814950000000     0.506500000000     0.266360000000     0.0396035  
H953     H      0.711080000000     0.530870000000     0.011140000000     0.0406146  
H954     H      0.774190000000     0.531160000000     0.006810000000     0.0395638  
H955     H      0.795310000000     0.489610000000     0.039700000000     0.0427558  
H956     H      0.691250000000     0.000850000000     0.989520000000     0.0434917  
H957     H      0.695220000000     0.989180000000     0.046770000000     0.042746   
H958     H      0.713560000000     0.960240000000     0.022520000000     0.0386899  
H959     H      0.791260000000     0.501450000000     0.982570000000     0.0429987  
H960     H      0.774040000000     0.960490000000     0.018210000000     0.039176   
H961     H      0.724100000000     0.885280000000     0.100900000000     0.0409495  
H962     H      0.786120000000     0.883420000000     0.099190000000     0.0400899  
H963     H      0.805320000000     0.908930000000     0.146550000000     0.0432227  
H964     H      0.704560000000     0.856020000000     0.123740000000     0.0432345  
H965     H      0.705070000000     0.906760000000     0.151270000000     0.0427983  
H966     H      0.726740000000     0.877800000000     0.172510000000     0.0389456  
H967     H      0.804960000000     0.854700000000     0.123290000000     0.0431305  
H968     H      0.787100000000     0.880180000000     0.171120000000     0.0394726  
H969     H      0.721500000000     0.644750000000     0.161240000000     0.0399521  
H970     H      0.785030000000     0.642070000000     0.152430000000     0.0397248  
H971     H      0.797840000000     0.600990000000     0.115010000000     0.0430227  
H972     H      0.699940000000     0.661000000000     0.129110000000     0.0428197  
H973     H      0.699190000000     0.602050000000     0.131960000000     0.042775   
H974     H      0.712470000000     0.617720000000     0.095230000000     0.0391852  
H975     H      0.798940000000     0.658710000000     0.116360000000     0.0428063  
H976     H      0.773610000000     0.618350000000     0.085480000000     0.0395706  
H977     H      0.552780000000     0.730270000000     0.251780000000     0.0413868  
H978     H      0.007950000000     0.686650000000     0.248280000000     0.0390145  
H979     H      0.968100000000     0.702640000000     0.284250000000     0.0407687  
H980     H      0.548160000000     0.763850000000     0.226480000000     0.0398466  
H981     H      0.536080000000     0.775900000000     0.282760000000     0.0393799  
H982     H      0.503020000000     0.781670000000     0.257300000000     0.0421966  
H983     H      0.974710000000     0.695950000000     0.224700000000     0.0402015  
H984     H      0.958260000000     0.735850000000     0.260700000000     0.0398387  
H985     H      0.971150000000     0.720570000000     0.006360000000     0.040026   
H986     H      0.533630000000     0.721030000000     0.003200000000     0.0401778  
H987     H      0.550940000000     0.766590000000     0.973660000000     0.0428143  
H988     H      0.953470000000     0.747090000000     0.033690000000     0.0430428  
H989     H      0.950800000000     0.765510000000     0.978060000000     0.0428284  
H990     H      0.970860000000     0.792090000000     0.003610000000     0.0389296  
H991     H      0.553560000000     0.747570000000     0.028900000000     0.0430596  
H992     H      0.532580000000     0.792580000000     0.001060000000     0.0389941  
H993     H      0.570860000000     0.493310000000     0.257140000000     0.0401711  
H994     H      0.526670000000     0.537870000000     0.256430000000     0.0417307  
H995     H      0.977370000000     0.517840000000     0.234670000000     0.040126   
H996     H      0.566160000000     0.962510000000     0.285320000000     0.0400985  
H997     H      0.550010000000     0.949110000000     0.228990000000     0.0402381  
H998     H      0.020810000000     0.942900000000     0.258410000000     0.0403152  
H999     H      0.997530000000     0.535490000000     0.286910000000     0.0398624  
H1000    H      0.976570000000     0.987040000000     0.263690000000     0.0440201  
H1001    H      0.971370000000     0.975700000000     0.010480000000     0.0401062  
H1002    H      0.533670000000     0.975880000000     0.007810000000     0.0403479  
H1003    H      0.551590000000     0.524550000000     0.983530000000     0.0428236  
H1004    H      0.953530000000     0.999050000000     0.040520000000     0.0429473  
H1005    H      0.951270000000     0.024230000000     0.987750000000     0.0435206  
H1006    H      0.972400000000     0.547080000000     0.015980000000     0.0393333  
H1007    H      0.553850000000     0.499310000000     0.036230000000     0.0431121  
H1008    H      0.532710000000     0.547240000000     0.013450000000     0.0386984  
H1009    H      0.538230000000     0.857800000000     0.165570000000     0.0392962  
H1010    H      0.976620000000     0.855380000000     0.170800000000     0.0396799  
H1011    H      0.954930000000     0.891650000000     0.133030000000     0.0431674  
H1012    H      0.556000000000     0.834950000000     0.135100000000     0.0428561  
H1013    H      0.554580000000     0.890770000000     0.121390000000     0.0431919  
H1014    H      0.531920000000     0.867770000000     0.094550000000     0.0403886  
H1015    H      0.955900000000     0.833330000000     0.141670000000     0.0430105  
H1016    H      0.970250000000     0.869730000000     0.100590000000     0.0395463  
H1017    H      0.542540000000     0.610890000000     0.167700000000     0.0395972  
H1018    H      0.981200000000     0.613100000000     0.167820000000     0.0392163  
H1019    H      0.960610000000     0.639350000000     0.120620000000     0.0430849  
H1020    H      0.560970000000     0.584590000000     0.140620000000     0.0428566  
H1021    H      0.561010000000     0.640760000000     0.122790000000     0.04302    
H1022    H      0.542410000000     0.614500000000     0.095800000000     0.0393549  
H1023    H      0.960570000000     0.586260000000     0.143010000000     0.0427889  
H1024    H      0.981170000000     0.612460000000     0.095790000000     0.0401352  
N1       N      0.378780000000     0.253780000000     0.630660000000    -0.165723   
N2       N      0.317040000000     0.254240000000     0.609430000000    -0.165753   
N3       N      0.129450000000     0.253690000000     0.615710000000    -0.165204   
N4       N      0.066440000000     0.254450000000     0.633410000000    -0.165567   
N5       N      0.346170000000     0.499410000000     0.648420000000    -0.165749   
N6       N      0.408900000000     0.500810000000     0.630430000000    -0.165549   
N7       N      0.096220000000     0.500220000000     0.640850000000    -0.165729   
N8       N      0.159830000000     0.499950000000     0.626420000000    -0.165762   
N9       N      0.220790000000     0.250200000000     0.519290000000    -0.166249   
N10      N      0.250710000000     0.247080000000     0.461300000000    -0.16635    
N11      N      0.262000000000     0.500340000000     0.543740000000    -0.166136   
N12      N      0.288400000000     0.501150000000     0.483840000000    -0.166348   
N13      N      0.972800000000     0.251170000000     0.535890000000    -0.165959   
N14      N      0.997350000000     0.248500000000     0.475080000000    -0.165883   
N15      N      0.404670000000     0.247750000000     0.380350000000    -0.165593   
N16      N      0.342170000000     0.246160000000     0.361560000000    -0.165943   
N17      N      0.154870000000     0.241830000000     0.367590000000    -0.165888   
N18      N      0.091970000000     0.241750000000     0.384950000000    -0.165924   
N19      N      0.028520000000     0.999510000000     0.477660000000    -0.164068   
N20      N      0.006180000000     0.499210000000     0.539980000000    -0.16482    
N21      N      0.438800000000     0.997880000000     0.374260000000    -0.165797   
N22      N      0.375060000000     0.998220000000     0.387520000000    -0.165341   
N23      N      0.188570000000     0.004870000000     0.399030000000    -0.167066   
N24      N      0.125450000000     0.003090000000     0.383230000000    -0.166858   
N25      N      0.229820000000     0.258440000000     0.707840000000    -0.166335   
N26      N      0.224780000000     0.250560000000     0.772600000000    -0.166256   
N27      N      0.244980000000     0.498100000000     0.731960000000    -0.166353   
N28      N      0.229230000000     0.508010000000     0.794400000000    -0.166995   
N29      N      0.237790000000     0.408390000000     0.887690000000    -0.165268   
N30      N      0.235120000000     0.345940000000     0.867230000000    -0.165264   
N31      N      0.231610000000     0.096880000000     0.889810000000    -0.165805   
N32      N      0.230430000000     0.157400000000     0.864960000000    -0.165952   
N33      N      0.972550000000     0.256140000000     0.724840000000    -0.166802   
N34      N      0.993240000000     0.274470000000     0.783640000000    -0.166879   
N35      N      0.002120000000     0.503270000000     0.729520000000    -0.165481   
N36      N      0.993500000000     0.516680000000     0.793290000000    -0.165556   
N37      N      0.001280000000     0.427300000000     0.896480000000    -0.166853   
N38      N      0.999360000000     0.364820000000     0.878310000000    -0.166787   
N39      N      0.994100000000     0.114510000000     0.886670000000    -0.166523   
N40      N      0.993930000000     0.177490000000     0.869810000000    -0.166908   
N41      N      0.259850000000     0.260390000000     0.213460000000    -0.167417   
N42      N      0.243180000000     0.240890000000     0.272840000000    -0.167336   
N43      N      0.240190000000     0.246580000000     0.960900000000    -0.165824   
N44      N      0.244850000000     0.260310000000     0.025280000000    -0.165456   
N45      N      0.275340000000     0.502630000000     0.295110000000    -0.165856   
N46      N      0.257470000000     0.515920000000     0.233480000000    -0.165617   
N47      N      0.245520000000     0.489060000000     0.046640000000    -0.166261   
N48      N      0.240980000000     0.503720000000     0.982720000000    -0.165631   
N49      N      0.255220000000     0.411230000000     0.149840000000    -0.16575    
N50      N      0.254790000000     0.352300000000     0.121190000000    -0.165421   
N51      N      0.248230000000     0.097760000000     0.122590000000    -0.164728   
N52      N      0.249840000000     0.163800000000     0.125550000000    -0.164723   
N53      N      0.999970000000     0.241420000000     0.285960000000    -0.165863   
N54      N      0.012740000000     0.228610000000     0.223000000000    -0.16601    
N55      N      0.000700000000     0.267900000000     0.972580000000    -0.165387   
N56      N      0.003680000000     0.244820000000     0.034450000000    -0.164974   
N57      N      0.012060000000     0.981950000000     0.229650000000    -0.164802   
N58      N      0.033500000000     0.000550000000     0.288280000000    -0.167394   
N59      N      0.001290000000     0.525220000000     0.982320000000    -0.165748   
N60      N      0.003810000000     0.496670000000     0.041290000000    -0.165938   
N61      N      0.504550000000     0.394660000000     0.125730000000    -0.165729   
N62      N      0.506010000000     0.330690000000     0.139780000000    -0.165858   
N63      N      0.510860000000     0.143360000000     0.120410000000    -0.166001   
N64      N      0.510820000000     0.082130000000     0.143200000000    -0.166415   
N65      N      0.378780000000     0.753780000000     0.630660000000    -0.165723   
N66      N      0.317040000000     0.754240000000     0.609430000000    -0.165804   
N67      N      0.129450000000     0.753690000000     0.615710000000    -0.165207   
N68      N      0.066440000000     0.754450000000     0.633410000000    -0.165571   
N69      N      0.346170000000     0.999410000000     0.648420000000    -0.164881   
N70      N      0.408900000000     0.000810000000     0.630430000000    -0.166443   
N71      N      0.096220000000     0.000220000000     0.640850000000    -0.166558   
N72      N      0.159830000000     0.999950000000     0.626420000000    -0.16484    
N73      N      0.220790000000     0.750200000000     0.519290000000    -0.166258   
N74      N      0.250710000000     0.747090000000     0.461300000000    -0.166348   
N75      N      0.262000000000     0.000350000000     0.543740000000    -0.166878   
N76      N      0.288400000000     0.001150000000     0.483840000000    -0.167127   
N77      N      0.972800000000     0.751170000000     0.535890000000    -0.16596    
N78      N      0.997350000000     0.748500000000     0.475080000000    -0.165932   
N79      N      0.404670000000     0.747750000000     0.380350000000    -0.16564    
N80      N      0.342170000000     0.746150000000     0.361560000000    -0.165896   
N81      N      0.154870000000     0.741830000000     0.367590000000    -0.165879   
N82      N      0.091970000000     0.741750000000     0.384950000000    -0.165946   
N83      N      0.028520000000     0.499510000000     0.477660000000    -0.164828   
N84      N      0.006180000000     0.999210000000     0.539980000000    -0.164052   
N85      N      0.438800000000     0.497880000000     0.374260000000    -0.166541   
N86      N      0.375060000000     0.498210000000     0.387520000000    -0.166116   
N87      N      0.188570000000     0.504870000000     0.399030000000    -0.16634    
N88      N      0.125450000000     0.503090000000     0.383230000000    -0.166115   
N89      N      0.229820000000     0.758440000000     0.707840000000    -0.166386   
N90      N      0.224780000000     0.750560000000     0.772600000000    -0.166251   
N91      N      0.244980000000     0.998100000000     0.731960000000    -0.1653     
N92      N      0.229230000000     0.008010000000     0.794400000000    -0.168498   
N93      N      0.237790000000     0.908400000000     0.887690000000    -0.165104   
N94      N      0.235120000000     0.845940000000     0.867230000000    -0.165259   
N95      N      0.231610000000     0.596880000000     0.889810000000    -0.165812   
N96      N      0.230430000000     0.657410000000     0.864960000000    -0.16603    
N97      N      0.972550000000     0.756150000000     0.724840000000    -0.166774   
N98      N      0.993240000000     0.774470000000     0.783640000000    -0.166866   
N99      N      0.002120000000     0.003270000000     0.729520000000    -0.166047   
N100     N      0.993500000000     0.016680000000     0.793290000000    -0.166936   
N101     N      0.001280000000     0.927300000000     0.896480000000    -0.166663   
N102     N      0.999360000000     0.864830000000     0.878310000000    -0.166684   
N103     N      0.994100000000     0.614510000000     0.886670000000    -0.166541   
N104     N      0.993930000000     0.677490000000     0.869810000000    -0.166911   
N105     N      0.259850000000     0.760390000000     0.213460000000    -0.167427   
N106     N      0.243180000000     0.740880000000     0.272840000000    -0.167327   
N107     N      0.240190000000     0.746570000000     0.960900000000    -0.165813   
N108     N      0.244850000000     0.760310000000     0.025280000000    -0.165449   
N109     N      0.275340000000     0.002630000000     0.295110000000    -0.166424   
N110     N      0.257470000000     0.015920000000     0.233480000000    -0.166969   
N111     N      0.245520000000     0.989060000000     0.046640000000    -0.166347   
N112     N      0.240980000000     0.003720000000     0.982720000000    -0.165413   
N113     N      0.255220000000     0.911230000000     0.149840000000    -0.165591   
N114     N      0.254790000000     0.852300000000     0.121190000000    -0.165408   
N115     N      0.248230000000     0.597760000000     0.122590000000    -0.164732   
N116     N      0.249840000000     0.663800000000     0.125550000000    -0.164723   
N117     N      0.999970000000     0.741420000000     0.285960000000    -0.165911   
N118     N      0.012740000000     0.728610000000     0.223000000000    -0.166007   
N119     N      0.000700000000     0.767900000000     0.972580000000    -0.165396   
N120     N      0.003680000000     0.744820000000     0.034450000000    -0.164973   
N121     N      0.012060000000     0.481950000000     0.229650000000    -0.166311   
N122     N      0.033500000000     0.500550000000     0.288280000000    -0.166364   
N123     N      0.001290000000     0.025220000000     0.982320000000    -0.165483   
N124     N      0.003810000000     0.996670000000     0.041290000000    -0.166157   
N125     N      0.504550000000     0.894660000000     0.125730000000    -0.165737   
N126     N      0.506010000000     0.830690000000     0.139780000000    -0.165864   
N127     N      0.510860000000     0.643360000000     0.120410000000    -0.166047   
N128     N      0.510820000000     0.582130000000     0.143200000000    -0.166251   
N129     N      0.878770000000     0.253780000000     0.630660000000    -0.165641   
N130     N      0.817040000000     0.254240000000     0.609430000000    -0.165752   
N131     N      0.629450000000     0.253690000000     0.615710000000    -0.165204   
N132     N      0.566440000000     0.254450000000     0.633410000000    -0.165573   
N133     N      0.846170000000     0.499410000000     0.648420000000    -0.165755   
N134     N      0.908890000000     0.500810000000     0.630430000000    -0.16548    
N135     N      0.596220000000     0.500220000000     0.640850000000    -0.165729   
N136     N      0.659830000000     0.499950000000     0.626420000000    -0.165762   
N137     N      0.720790000000     0.250200000000     0.519290000000    -0.16625    
N138     N      0.750710000000     0.247080000000     0.461300000000    -0.166349   
N139     N      0.762000000000     0.500340000000     0.543740000000    -0.166136   
N140     N      0.788400000000     0.501150000000     0.483840000000    -0.166348   
N141     N      0.472800000000     0.251170000000     0.535890000000    -0.165948   
N142     N      0.497350000000     0.248500000000     0.475080000000    -0.165905   
N143     N      0.904680000000     0.247750000000     0.380350000000    -0.165671   
N144     N      0.842170000000     0.246160000000     0.361560000000    -0.165943   
N145     N      0.654870000000     0.241830000000     0.367590000000    -0.165887   
N146     N      0.591970000000     0.241750000000     0.384950000000    -0.165869   
N147     N      0.528510000000     0.999510000000     0.477660000000    -0.164076   
N148     N      0.506180000000     0.499210000000     0.539980000000    -0.164807   
N149     N      0.938800000000     0.997880000000     0.374260000000    -0.165803   
N150     N      0.875060000000     0.998220000000     0.387520000000    -0.165343   
N151     N      0.688570000000     0.004870000000     0.399030000000    -0.167069   
N152     N      0.625450000000     0.003090000000     0.383230000000    -0.166797   
N153     N      0.729820000000     0.258440000000     0.707840000000    -0.166335   
N154     N      0.724790000000     0.250560000000     0.772600000000    -0.166233   
N155     N      0.744980000000     0.498100000000     0.731960000000    -0.166349   
N156     N      0.729230000000     0.508010000000     0.794400000000    -0.167      
N157     N      0.737790000000     0.408390000000     0.887690000000    -0.165269   
N158     N      0.735120000000     0.345940000000     0.867230000000    -0.165264   
N159     N      0.731600000000     0.096880000000     0.889810000000    -0.16585    
N160     N      0.730430000000     0.157400000000     0.864960000000    -0.165951   
N161     N      0.472540000000     0.256140000000     0.724840000000    -0.166833   
N162     N      0.493240000000     0.274470000000     0.783640000000    -0.166836   
N163     N      0.502120000000     0.503270000000     0.729520000000    -0.165537   
N164     N      0.493500000000     0.516680000000     0.793290000000    -0.165512   
N165     N      0.501280000000     0.427300000000     0.896480000000    -0.166948   
N166     N      0.499360000000     0.364820000000     0.878310000000    -0.166754   
N167     N      0.494100000000     0.114510000000     0.886670000000    -0.1665     
N168     N      0.493920000000     0.177490000000     0.869810000000    -0.166858   
N169     N      0.759850000000     0.260390000000     0.213460000000    -0.167427   
N170     N      0.743180000000     0.240890000000     0.272840000000    -0.16732    
N171     N      0.740200000000     0.246580000000     0.960900000000    -0.165856   
N172     N      0.744850000000     0.260310000000     0.025280000000    -0.165446   
N173     N      0.775340000000     0.502630000000     0.295110000000    -0.16586    
N174     N      0.757470000000     0.515920000000     0.233480000000    -0.165616   
N175     N      0.745520000000     0.489060000000     0.046640000000    -0.16626    
N176     N      0.740980000000     0.503720000000     0.982720000000    -0.165685   
N177     N      0.755210000000     0.411230000000     0.149840000000    -0.165753   
N178     N      0.754790000000     0.352300000000     0.121190000000    -0.16542    
N179     N      0.748230000000     0.097760000000     0.122590000000    -0.164729   
N180     N      0.749840000000     0.163800000000     0.125550000000    -0.164723   
N181     N      0.499970000000     0.241420000000     0.285960000000    -0.165832   
N182     N      0.512740000000     0.228610000000     0.223000000000    -0.166011   
N183     N      0.500700000000     0.267900000000     0.972580000000    -0.165548   
N184     N      0.503680000000     0.244820000000     0.034450000000    -0.164993   
N185     N      0.512060000000     0.981950000000     0.229650000000    -0.164839   
N186     N      0.533500000000     0.000550000000     0.288280000000    -0.16738    
N187     N      0.501290000000     0.525220000000     0.982320000000    -0.165871   
N188     N      0.503810000000     0.496670000000     0.041290000000    -0.165974   
N189     N      0.004540000000     0.394660000000     0.125730000000    -0.165693   
N190     N      0.006010000000     0.330690000000     0.139780000000    -0.165826   
N191     N      0.010860000000     0.143360000000     0.120410000000    -0.165921   
N192     N      0.010820000000     0.082130000000     0.143200000000    -0.166431   
N193     N      0.878770000000     0.753780000000     0.630660000000    -0.165641   
N194     N      0.817040000000     0.754240000000     0.609430000000    -0.165803   
N195     N      0.629450000000     0.753690000000     0.615710000000    -0.165207   
N196     N      0.566440000000     0.754450000000     0.633410000000    -0.165576   
N197     N      0.846170000000     0.999410000000     0.648420000000    -0.164887   
N198     N      0.908890000000     0.000810000000     0.630430000000    -0.166376   
N199     N      0.596220000000     0.000220000000     0.640850000000    -0.16656    
N200     N      0.659830000000     0.999950000000     0.626420000000    -0.164837   
N201     N      0.720790000000     0.750200000000     0.519290000000    -0.166259   
N202     N      0.750710000000     0.747090000000     0.461300000000    -0.166347   
N203     N      0.762000000000     0.000350000000     0.543740000000    -0.166879   
N204     N      0.788400000000     0.001150000000     0.483840000000    -0.167128   
N205     N      0.472800000000     0.751170000000     0.535890000000    -0.16595    
N206     N      0.497350000000     0.748500000000     0.475080000000    -0.165953   
N207     N      0.904680000000     0.747750000000     0.380350000000    -0.165718   
N208     N      0.842170000000     0.746150000000     0.361560000000    -0.165895   
N209     N      0.654870000000     0.741830000000     0.367590000000    -0.165878   
N210     N      0.591970000000     0.741750000000     0.384950000000    -0.165891   
N211     N      0.528510000000     0.499510000000     0.477660000000    -0.16484    
N212     N      0.506180000000     0.999210000000     0.539980000000    -0.164034   
N213     N      0.938800000000     0.497880000000     0.374260000000    -0.166547   
N214     N      0.875060000000     0.498210000000     0.387520000000    -0.166117   
N215     N      0.688570000000     0.504870000000     0.399030000000    -0.166341   
N216     N      0.625450000000     0.503090000000     0.383230000000    -0.166051   
N217     N      0.729820000000     0.758440000000     0.707840000000    -0.166386   
N218     N      0.724790000000     0.750560000000     0.772600000000    -0.166228   
N219     N      0.744980000000     0.998100000000     0.731960000000    -0.165295   
N220     N      0.729230000000     0.008010000000     0.794400000000    -0.168506   
N221     N      0.737790000000     0.908400000000     0.887690000000    -0.165105   
N222     N      0.735120000000     0.845940000000     0.867230000000    -0.165259   
N223     N      0.731600000000     0.596880000000     0.889810000000    -0.165857   
N224     N      0.730430000000     0.657410000000     0.864960000000    -0.16603    
N225     N      0.472540000000     0.756150000000     0.724840000000    -0.166804   
N226     N      0.493240000000     0.774470000000     0.783640000000    -0.166825   
N227     N      0.502120000000     0.003270000000     0.729520000000    -0.166107   
N228     N      0.493500000000     0.016680000000     0.793290000000    -0.16689    
N229     N      0.501280000000     0.927300000000     0.896480000000    -0.166756   
N230     N      0.499360000000     0.864830000000     0.878310000000    -0.166652   
N231     N      0.494100000000     0.614510000000     0.886670000000    -0.16652    
N232     N      0.493920000000     0.677490000000     0.869810000000    -0.166862   
N233     N      0.759850000000     0.760390000000     0.213460000000    -0.167436   
N234     N      0.743180000000     0.740880000000     0.272840000000    -0.16731    
N235     N      0.740200000000     0.746570000000     0.960900000000    -0.165846   
N236     N      0.744850000000     0.760310000000     0.025280000000    -0.16544    
N237     N      0.775340000000     0.002630000000     0.295110000000    -0.166429   
N238     N      0.757470000000     0.015920000000     0.233480000000    -0.16697    
N239     N      0.745520000000     0.989060000000     0.046640000000    -0.166346   
N240     N      0.740980000000     0.003720000000     0.982720000000    -0.165467   
N241     N      0.755210000000     0.911230000000     0.149840000000    -0.165593   
N242     N      0.754790000000     0.852300000000     0.121190000000    -0.165407   
N243     N      0.748230000000     0.597760000000     0.122590000000    -0.164732   
N244     N      0.749840000000     0.663800000000     0.125550000000    -0.164723   
N245     N      0.499970000000     0.741420000000     0.285960000000    -0.165881   
N246     N      0.512740000000     0.728610000000     0.223000000000    -0.166005   
N247     N      0.500700000000     0.767900000000     0.972580000000    -0.165552   
N248     N      0.503680000000     0.744820000000     0.034450000000    -0.16499    
N249     N      0.512060000000     0.481950000000     0.229650000000    -0.16635    
N250     N      0.533500000000     0.500550000000     0.288280000000    -0.166347   
N251     N      0.501290000000     0.025220000000     0.982320000000    -0.165612   
N252     N      0.503810000000     0.996670000000     0.041290000000    -0.166191   
N253     N      0.004540000000     0.894660000000     0.125730000000    -0.165703   
N254     N      0.006010000000     0.830690000000     0.139780000000    -0.165833   
N255     N      0.010860000000     0.643360000000     0.120410000000    -0.165969   
N256     N      0.010820000000     0.582130000000     0.143200000000    -0.166268   
O1       O      0.035670000000     0.981230000000     0.181580000000    -0.397605   
O2       O      0.031660000000     0.992740000000     0.087110000000    -0.398536   
O3       O      0.035420000000     0.034540000000     0.139690000000    -0.398884   
O4       O      0.031820000000     0.440510000000     0.128830000000    -0.399849   
O5       O      0.480290000000     0.441880000000     0.133790000000    -0.397147   
O6       O      0.483670000000     0.036290000000     0.139520000000    -0.402413   
O7       O      0.479930000000     0.492160000000     0.089300000000    -0.398916   
O8       O      0.484210000000     0.487380000000     0.184300000000    -0.398231   
O9       O      0.031790000000     0.241300000000     0.080240000000    -0.397027   
O10      O      0.036230000000     0.235800000000     0.175380000000    -0.397231   
O11      O      0.035600000000     0.190800000000     0.124540000000    -0.397397   
O12      O      0.032600000000     0.285150000000     0.131240000000    -0.400318   
O13      O      0.481090000000     0.283240000000     0.136210000000    -0.396353   
O14      O      0.483850000000     0.189300000000     0.124300000000    -0.399865   
O15      O      0.484760000000     0.229500000000     0.177340000000    -0.396372   
O16      O      0.480090000000     0.241750000000     0.082820000000    -0.396786   
O17      O      0.280400000000     0.514440000000     0.184920000000    -0.394904   
O18      O      0.274490000000     0.497500000000     0.091140000000    -0.397776   
O19      O      0.275630000000     0.052310000000     0.129580000000    -0.39742    
O20      O      0.279550000000     0.458910000000     0.145620000000    -0.395759   
O21      O      0.227820000000     0.457070000000     0.146750000000    -0.398396   
O22      O      0.224210000000     0.051330000000     0.135570000000    -0.393739   
O23      O      0.222820000000     0.498120000000     0.094480000000    -0.399917   
O24      O      0.228990000000     0.508630000000     0.188780000000    -0.398168   
O25      O      0.274320000000     0.258270000000     0.070200000000    -0.398332   
O26      O      0.281820000000     0.255400000000     0.165010000000    -0.399278   
O27      O      0.276360000000     0.209670000000     0.117260000000    -0.396421   
O28      O      0.279590000000     0.304640000000     0.118790000000    -0.394714   
O29      O      0.227860000000     0.306150000000     0.119960000000    -0.399421   
O30      O      0.225080000000     0.211500000000     0.124230000000    -0.395628   
O31      O      0.230460000000     0.261860000000     0.168950000000    -0.400689   
O32      O      0.222710000000     0.257440000000     0.074280000000    -0.398643   
O33      O      0.025230000000     0.523030000000     0.934210000000    -0.398826   
O34      O      0.021110000000     0.521350000000     0.838980000000    -0.3967     
O35      O      0.021350000000     0.068710000000     0.885860000000    -0.402705   
O36      O      0.025190000000     0.474510000000     0.888230000000    -0.400431   
O37      O      0.473660000000     0.472770000000     0.893090000000    -0.402565   
O38      O      0.469600000000     0.066830000000     0.885580000000    -0.398631   
O39      O      0.469680000000     0.514960000000     0.841380000000    -0.396224   
O40      O      0.473490000000     0.523340000000     0.936350000000    -0.398435   
O41      O      0.024590000000     0.269450000000     0.924330000000    -0.398026   
O42      O      0.020710000000     0.269810000000     0.829190000000    -0.399334   
O43      O      0.024170000000     0.317370000000     0.876870000000    -0.399654   
O44      O      0.021030000000     0.223040000000     0.875720000000    -0.402627   
O45      O      0.469270000000     0.224770000000     0.875050000000    -0.399548   
O46      O      0.472640000000     0.318830000000     0.881920000000    -0.402685   
O47      O      0.469250000000     0.276230000000     0.831440000000    -0.398262   
O48      O      0.472860000000     0.268640000000     0.926460000000    -0.397076   
O49      O      0.212030000000     0.502480000000     0.937380000000    -0.397617   
O50      O      0.206260000000     0.500440000000     0.842160000000    -0.396735   
O51      O      0.210800000000     0.454460000000     0.890480000000    -0.398973   
O52      O      0.207200000000     0.049090000000     0.889290000000    -0.396746   
O53      O      0.258950000000     0.050950000000     0.888960000000    -0.398969   
O54      O      0.262200000000     0.456230000000     0.884520000000    -0.395486   
O55      O      0.257670000000     0.507150000000     0.839470000000    -0.400486   
O56      O      0.263710000000     0.501940000000     0.934060000000    -0.400207   
O57      O      0.262280000000     0.250820000000     0.911970000000    -0.398354   
O58      O      0.254430000000     0.249310000000     0.817070000000    -0.397911   
O59      O      0.259750000000     0.298310000000     0.863910000000    -0.396231   
O60      O      0.257190000000     0.203630000000     0.864980000000    -0.400071   
O61      O      0.205450000000     0.204930000000     0.866570000000    -0.396043   
O62      O      0.208440000000     0.299660000000     0.870750000000    -0.398043   
O63      O      0.203040000000     0.255250000000     0.821310000000    -0.397676   
O64      O      0.210680000000     0.249900000000     0.916100000000    -0.39853    
O65      O      0.029780000000     0.473770000000     0.430220000000    -0.395998   
O66      O      0.036710000000     0.474510000000     0.335010000000    -0.39684    
O67      O      0.079700000000     0.475820000000     0.385470000000    -0.399919   
O68      O      0.485780000000     0.472680000000     0.378870000000    -0.39742    
O69      O      0.484170000000     0.024610000000     0.381820000000    -0.404566   
O70      O      0.078040000000     0.027770000000     0.382950000000    -0.398368   
O71      O      0.030430000000     0.026280000000     0.335170000000    -0.39736    
O72      O      0.030330000000     0.025790000000     0.430550000000    -0.398691   
O73      O      0.996180000000     0.217200000000     0.333700000000    -0.396683   
O74      O      0.997780000000     0.220690000000     0.428970000000    -0.398071   
O75      O      0.450490000000     0.220570000000     0.381880000000    -0.400146   
O76      O      0.044600000000     0.217130000000     0.381320000000    -0.397233   
O77      O      0.046320000000     0.269130000000     0.381990000000    -0.399626   
O78      O      0.452180000000     0.272380000000     0.377390000000    -0.396156   
O79      O      0.997420000000     0.272690000000     0.426970000000    -0.398457   
O80      O      0.002440000000     0.268930000000     0.331910000000    -0.397212   
O81      O      0.285130000000     0.475400000000     0.436700000000    -0.398975   
O82      O      0.275200000000     0.476370000000     0.341910000000    -0.397172   
O83      O      0.327500000000     0.473910000000     0.385250000000    -0.39874    
O84      O      0.234000000000     0.477550000000     0.394260000000    -0.402019   
O85      O      0.235530000000     0.029500000000     0.391690000000    -0.397221   
O86      O      0.329520000000     0.025830000000     0.388100000000    -0.403162   
O87      O      0.281780000000     0.028090000000     0.341850000000    -0.396697   
O88      O      0.284610000000     0.027440000000     0.437070000000    -0.398687   
O89      O      0.249690000000     0.216440000000     0.319960000000    -0.398896   
O90      O      0.249670000000     0.219490000000     0.415090000000    -0.399361   
O91      O      0.202130000000     0.216660000000     0.367650000000    -0.396776   
O92      O      0.296370000000     0.219350000000     0.366950000000    -0.399706   
O93      O      0.294860000000     0.271170000000     0.362580000000    -0.397627   
O94      O      0.200900000000     0.268660000000     0.368920000000    -0.400838   
O95      O      0.250740000000     0.271490000000     0.413360000000    -0.400541   
O96      O      0.243580000000     0.268230000000     0.318730000000    -0.40131    
O97      O      0.998570000000     0.475990000000     0.683310000000    -0.393483   
O98      O      0.005330000000     0.473850000000     0.587730000000    -0.393937   
O99      O      0.049340000000     0.474580000000     0.638770000000    -0.397388   
O100     O      0.455410000000     0.474830000000     0.632310000000    -0.399149   
O101     O      0.455650000000     0.026830000000     0.633620000000    -0.395684   
O102     O      0.050050000000     0.026490000000     0.635410000000    -0.397617   
O103     O      0.003780000000     0.025840000000     0.586760000000    -0.399119   
O104     O      0.003370000000     0.027890000000     0.681990000000    -0.396564   
O105     O      0.974460000000     0.229120000000     0.678750000000    -0.399697   
O106     O      0.972290000000     0.226600000000     0.583760000000    -0.39977    
O107     O      0.020050000000     0.228110000000     0.630900000000    -0.398126   
O108     O      0.425630000000     0.227850000000     0.631890000000    -0.396517   
O109     O      0.425290000000     0.279770000000     0.628590000000    -0.399172   
O110     O      0.019510000000     0.280130000000     0.631490000000    -0.397082   
O111     O      0.973610000000     0.278590000000     0.582270000000    -0.398151   
O112     O      0.969980000000     0.281060000000     0.677480000000    -0.398104   
O113     O      0.250090000000     0.024650000000     0.685730000000    -0.401179   
O114     O      0.257140000000     0.025920000000     0.590860000000    -0.399042   
O115     O      0.206180000000     0.025540000000     0.634010000000    -0.400351   
O116     O      0.299990000000     0.025370000000     0.642410000000    -0.401907   
O117     O      0.299600000000     0.473350000000     0.643660000000    -0.396147   
O118     O      0.205960000000     0.473570000000     0.631530000000    -0.398543   
O119     O      0.258470000000     0.473910000000     0.590470000000    -0.399612   
O120     O      0.245970000000     0.472680000000     0.684800000000    -0.39806    
O121     O      0.223040000000     0.282260000000     0.660340000000    -0.398316   
O122     O      0.222330000000     0.278110000000     0.565250000000    -0.399359   
O123     O      0.175890000000     0.279950000000     0.613340000000    -0.397823   
O124     O      0.270270000000     0.280220000000     0.611990000000    -0.396717   
O125     O      0.270550000000     0.228190000000     0.611630000000    -0.399287   
O126     O      0.176460000000     0.228120000000     0.617860000000    -0.396556   
O127     O      0.220630000000     0.226150000000     0.567450000000    -0.399005   
O128     O      0.227880000000     0.230370000000     0.662270000000    -0.398229   
O129     O      0.035670000000     0.481230000000     0.181580000000    -0.397865   
O130     O      0.031660000000     0.492740000000     0.087110000000    -0.398764   
O131     O      0.035420000000     0.534540000000     0.139690000000    -0.397184   
O132     O      0.031820000000     0.940510000000     0.128830000000    -0.400133   
O133     O      0.480290000000     0.941880000000     0.133790000000    -0.39741    
O134     O      0.483670000000     0.536290000000     0.139520000000    -0.400711   
O135     O      0.479930000000     0.992160000000     0.089300000000    -0.398721   
O136     O      0.484210000000     0.987380000000     0.184300000000    -0.397672   
O137     O      0.031790000000     0.741300000000     0.080240000000    -0.397023   
O138     O      0.036230000000     0.735800000000     0.175380000000    -0.397228   
O139     O      0.035600000000     0.690800000000     0.124540000000    -0.397287   
O140     O      0.032600000000     0.785150000000     0.131240000000    -0.400329   
O141     O      0.481090000000     0.783240000000     0.136210000000    -0.396438   
O142     O      0.483850000000     0.689300000000     0.124300000000    -0.399682   
O143     O      0.484760000000     0.729500000000     0.177340000000    -0.396356   
O144     O      0.480090000000     0.741750000000     0.082820000000    -0.39679    
O145     O      0.280400000000     0.014440000000     0.184920000000    -0.394865   
O146     O      0.274490000000     0.997510000000     0.091140000000    -0.395956   
O147     O      0.275630000000     0.552310000000     0.129580000000    -0.397663   
O148     O      0.279550000000     0.958910000000     0.145620000000    -0.394102   
O149     O      0.227820000000     0.957070000000     0.146750000000    -0.396856   
O150     O      0.224210000000     0.551330000000     0.135570000000    -0.394049   
O151     O      0.222820000000     0.998120000000     0.094480000000    -0.398062   
O152     O      0.228990000000     0.008630000000     0.188780000000    -0.39841    
O153     O      0.274320000000     0.758270000000     0.070200000000    -0.398337   
O154     O      0.281820000000     0.755400000000     0.165010000000    -0.39929    
O155     O      0.276360000000     0.709670000000     0.117260000000    -0.396436   
O156     O      0.279590000000     0.804630000000     0.118790000000    -0.394721   
O157     O      0.227860000000     0.806150000000     0.119960000000    -0.39938    
O158     O      0.225080000000     0.711500000000     0.124230000000    -0.395628   
O159     O      0.230460000000     0.761860000000     0.168950000000    -0.400689   
O160     O      0.222710000000     0.757440000000     0.074280000000    -0.398638   
O161     O      0.025230000000     0.023030000000     0.934210000000    -0.39899    
O162     O      0.021110000000     0.021350000000     0.838980000000    -0.396907   
O163     O      0.021350000000     0.568710000000     0.885860000000    -0.403015   
O164     O      0.025190000000     0.974510000000     0.888230000000    -0.398634   
O165     O      0.473660000000     0.972780000000     0.893090000000    -0.400843   
O166     O      0.469600000000     0.566830000000     0.885580000000    -0.398894   
O167     O      0.469680000000     0.014960000000     0.841380000000    -0.396731   
O168     O      0.473490000000     0.023340000000     0.936350000000    -0.398596   
O169     O      0.024590000000     0.769450000000     0.924330000000    -0.398038   
O170     O      0.020710000000     0.769810000000     0.829190000000    -0.399343   
O171     O      0.024170000000     0.817360000000     0.876870000000    -0.399625   
O172     O      0.021030000000     0.723040000000     0.875720000000    -0.402656   
O173     O      0.469270000000     0.724770000000     0.875050000000    -0.399553   
O174     O      0.472640000000     0.818830000000     0.881920000000    -0.4026     
O175     O      0.469250000000     0.776230000000     0.831440000000    -0.398254   
O176     O      0.472860000000     0.768640000000     0.926460000000    -0.397069   
O177     O      0.212030000000     0.002480000000     0.937380000000    -0.397791   
O178     O      0.206260000000     0.000440000000     0.842160000000    -0.397254   
O179     O      0.210800000000     0.954460000000     0.890480000000    -0.397377   
O180     O      0.207200000000     0.549090000000     0.889290000000    -0.396986   
O181     O      0.258950000000     0.550940000000     0.888960000000    -0.399279   
O182     O      0.262200000000     0.956230000000     0.884520000000    -0.393872   
O183     O      0.257670000000     0.007150000000     0.839470000000    -0.400731   
O184     O      0.263710000000     0.001940000000     0.934060000000    -0.400397   
O185     O      0.262280000000     0.750820000000     0.911970000000    -0.398356   
O186     O      0.254430000000     0.749310000000     0.817070000000    -0.397911   
O187     O      0.259750000000     0.798310000000     0.863910000000    -0.396223   
O188     O      0.257190000000     0.703630000000     0.864980000000    -0.400099   
O189     O      0.205450000000     0.704930000000     0.866570000000    -0.39607    
O190     O      0.208440000000     0.799660000000     0.870750000000    -0.398036   
O191     O      0.203040000000     0.755250000000     0.821310000000    -0.397676   
O192     O      0.210680000000     0.749900000000     0.916100000000    -0.398529   
O193     O      0.029780000000     0.973770000000     0.430220000000    -0.39644    
O194     O      0.036710000000     0.974510000000     0.335010000000    -0.394924   
O195     O      0.079700000000     0.975820000000     0.385470000000    -0.398003   
O196     O      0.485780000000     0.972680000000     0.378870000000    -0.397949   
O197     O      0.484170000000     0.524610000000     0.381820000000    -0.402579   
O198     O      0.078040000000     0.527770000000     0.382950000000    -0.398847   
O199     O      0.030430000000     0.526280000000     0.335170000000    -0.397809   
O200     O      0.030330000000     0.525790000000     0.430550000000    -0.396625   
O201     O      0.996180000000     0.717210000000     0.333700000000    -0.39683    
O202     O      0.997780000000     0.720700000000     0.428970000000    -0.398219   
O203     O      0.450490000000     0.720580000000     0.381880000000    -0.400288   
O204     O      0.044600000000     0.717130000000     0.381320000000    -0.397239   
O205     O      0.046320000000     0.769130000000     0.381990000000    -0.399626   
O206     O      0.452180000000     0.772380000000     0.377390000000    -0.396193   
O207     O      0.997420000000     0.772690000000     0.426970000000    -0.398501   
O208     O      0.002440000000     0.768930000000     0.331910000000    -0.397266   
O209     O      0.285130000000     0.975410000000     0.436700000000    -0.397115   
O210     O      0.275200000000     0.976370000000     0.341910000000    -0.395096   
O211     O      0.327500000000     0.973910000000     0.385250000000    -0.399157   
O212     O      0.234000000000     0.977550000000     0.394260000000    -0.399995   
O213     O      0.235530000000     0.529500000000     0.391690000000    -0.397812   
O214     O      0.329520000000     0.525830000000     0.388100000000    -0.40129    
O215     O      0.281780000000     0.528090000000     0.341850000000    -0.397288   
O216     O      0.284610000000     0.527440000000     0.437070000000    -0.399225   
O217     O      0.249690000000     0.716440000000     0.319960000000    -0.39887    
O218     O      0.249670000000     0.719490000000     0.415090000000    -0.399253   
O219     O      0.202130000000     0.716660000000     0.367650000000    -0.396756   
O220     O      0.296370000000     0.719350000000     0.366950000000    -0.399634   
O221     O      0.294860000000     0.771180000000     0.362580000000    -0.397458   
O222     O      0.200900000000     0.768660000000     0.368920000000    -0.400817   
O223     O      0.250740000000     0.771490000000     0.413360000000    -0.400607   
O224     O      0.243580000000     0.768230000000     0.318730000000    -0.401292   
O225     O      0.998570000000     0.975990000000     0.683310000000    -0.391425   
O226     O      0.005330000000     0.973850000000     0.587730000000    -0.3944     
O227     O      0.049340000000     0.974570000000     0.638770000000    -0.395226   
O228     O      0.455410000000     0.974830000000     0.632310000000    -0.397178   
O229     O      0.455650000000     0.526830000000     0.633620000000    -0.396217   
O230     O      0.050050000000     0.526490000000     0.635410000000    -0.39822    
O231     O      0.003780000000     0.525840000000     0.586760000000    -0.397211   
O232     O      0.003370000000     0.527890000000     0.681990000000    -0.397154   
O233     O      0.974460000000     0.729120000000     0.678750000000    -0.39965    
O234     O      0.972290000000     0.726600000000     0.583760000000    -0.399769   
O235     O      0.020050000000     0.728110000000     0.630900000000    -0.398134   
O236     O      0.425630000000     0.727850000000     0.631890000000    -0.396519   
O237     O      0.425290000000     0.779770000000     0.628590000000    -0.399168   
O238     O      0.019510000000     0.780130000000     0.631490000000    -0.397082   
O239     O      0.973610000000     0.778590000000     0.582270000000    -0.398146   
O240     O      0.969980000000     0.781070000000     0.677480000000    -0.397939   
O241     O      0.250090000000     0.524650000000     0.685730000000    -0.399074   
O242     O      0.257140000000     0.525920000000     0.590860000000    -0.399482   
O243     O      0.206180000000     0.525540000000     0.634010000000    -0.398323   
O244     O      0.299990000000     0.525370000000     0.642410000000    -0.399861   
O245     O      0.299600000000     0.973360000000     0.643660000000    -0.396834   
O246     O      0.205960000000     0.973570000000     0.631530000000    -0.399109   
O247     O      0.258470000000     0.973910000000     0.590470000000    -0.397733   
O248     O      0.245970000000     0.972680000000     0.684800000000    -0.39851    
O249     O      0.223040000000     0.782250000000     0.660340000000    -0.398471   
O250     O      0.222330000000     0.778110000000     0.565250000000    -0.399368   
O251     O      0.175890000000     0.779950000000     0.613340000000    -0.397829   
O252     O      0.270270000000     0.780220000000     0.611990000000    -0.396781   
O253     O      0.270550000000     0.728200000000     0.611630000000    -0.399448   
O254     O      0.176460000000     0.728120000000     0.617860000000    -0.396566   
O255     O      0.220630000000     0.726150000000     0.567450000000    -0.399015   
O256     O      0.227880000000     0.730370000000     0.662270000000    -0.398295   
O257     O      0.535670000000     0.981230000000     0.181580000000    -0.397577   
O258     O      0.531660000000     0.992740000000     0.087110000000    -0.39851    
O259     O      0.535420000000     0.034540000000     0.139690000000    -0.398805   
O260     O      0.531820000000     0.440510000000     0.128830000000    -0.399815   
O261     O      0.980290000000     0.441880000000     0.133790000000    -0.397225   
O262     O      0.983680000000     0.036290000000     0.139520000000    -0.402645   
O263     O      0.979930000000     0.492160000000     0.089300000000    -0.398994   
O264     O      0.984210000000     0.487380000000     0.184300000000    -0.39831    
O265     O      0.531790000000     0.241300000000     0.080240000000    -0.396997   
O266     O      0.536230000000     0.235800000000     0.175380000000    -0.397147   
O267     O      0.535600000000     0.190800000000     0.124540000000    -0.397428   
O268     O      0.532600000000     0.285150000000     0.131240000000    -0.400292   
O269     O      0.981090000000     0.283240000000     0.136210000000    -0.39643    
O270     O      0.983840000000     0.189300000000     0.124300000000    -0.39979    
O271     O      0.984770000000     0.229500000000     0.177340000000    -0.396599   
O272     O      0.980090000000     0.241750000000     0.082820000000    -0.396863   
O273     O      0.780400000000     0.514440000000     0.184920000000    -0.394905   
O274     O      0.774490000000     0.497500000000     0.091140000000    -0.397776   
O275     O      0.775630000000     0.052310000000     0.129580000000    -0.39742    
O276     O      0.779550000000     0.458910000000     0.145620000000    -0.395764   
O277     O      0.727820000000     0.457070000000     0.146750000000    -0.398393   
O278     O      0.724210000000     0.051330000000     0.135570000000    -0.393739   
O279     O      0.722820000000     0.498120000000     0.094480000000    -0.399916   
O280     O      0.728990000000     0.508630000000     0.188780000000    -0.398167   
O281     O      0.774320000000     0.258270000000     0.070200000000    -0.398334   
O282     O      0.781820000000     0.255400000000     0.165010000000    -0.39937    
O283     O      0.776360000000     0.209670000000     0.117260000000    -0.396421   
O284     O      0.779590000000     0.304640000000     0.118790000000    -0.394716   
O285     O      0.727860000000     0.306150000000     0.119960000000    -0.399419   
O286     O      0.725080000000     0.211500000000     0.124230000000    -0.395626   
O287     O      0.730460000000     0.261860000000     0.168950000000    -0.400585   
O288     O      0.722710000000     0.257440000000     0.074280000000    -0.398639   
O289     O      0.525230000000     0.523030000000     0.934210000000    -0.398935   
O290     O      0.521110000000     0.521350000000     0.838980000000    -0.39679    
O291     O      0.521350000000     0.068710000000     0.885860000000    -0.402804   
O292     O      0.525190000000     0.474510000000     0.888230000000    -0.400467   
O293     O      0.973650000000     0.472770000000     0.893090000000    -0.402501   
O294     O      0.969600000000     0.066830000000     0.885580000000    -0.398602   
O295     O      0.969680000000     0.514960000000     0.841380000000    -0.3962     
O296     O      0.973490000000     0.523340000000     0.936350000000    -0.398393   
O297     O      0.524590000000     0.269450000000     0.924330000000    -0.398144   
O298     O      0.520710000000     0.269810000000     0.829190000000    -0.399429   
O299     O      0.524170000000     0.317370000000     0.876870000000    -0.39984    
O300     O      0.521030000000     0.223040000000     0.875720000000    -0.402729   
O301     O      0.969270000000     0.224770000000     0.875050000000    -0.399533   
O302     O      0.972640000000     0.318830000000     0.881920000000    -0.40276    
O303     O      0.969250000000     0.276230000000     0.831440000000    -0.398238   
O304     O      0.972860000000     0.268640000000     0.926460000000    -0.397031   
O305     O      0.712040000000     0.502480000000     0.937380000000    -0.397774   
O306     O      0.706260000000     0.500440000000     0.842160000000    -0.396832   
O307     O      0.710800000000     0.454460000000     0.890480000000    -0.398981   
O308     O      0.707200000000     0.049090000000     0.889290000000    -0.396804   
O309     O      0.758940000000     0.050950000000     0.888960000000    -0.399125   
O310     O      0.762200000000     0.456230000000     0.884520000000    -0.39549    
O311     O      0.757670000000     0.507150000000     0.839470000000    -0.40039    
O312     O      0.763710000000     0.501940000000     0.934060000000    -0.400267   
O313     O      0.762280000000     0.250820000000     0.911970000000    -0.398351   
O314     O      0.754430000000     0.249310000000     0.817070000000    -0.397906   
O315     O      0.759750000000     0.298310000000     0.863910000000    -0.396231   
O316     O      0.757190000000     0.203630000000     0.864980000000    -0.400071   
O317     O      0.705450000000     0.204930000000     0.866570000000    -0.396044   
O318     O      0.708440000000     0.299660000000     0.870750000000    -0.398044   
O319     O      0.703040000000     0.255250000000     0.821310000000    -0.397681   
O320     O      0.710680000000     0.249900000000     0.916100000000    -0.398535   
O321     O      0.529780000000     0.473770000000     0.430220000000    -0.396011   
O322     O      0.536710000000     0.474510000000     0.335010000000    -0.396848   
O323     O      0.579700000000     0.475820000000     0.385470000000    -0.399986   
O324     O      0.985780000000     0.472680000000     0.378870000000    -0.397479   
O325     O      0.984170000000     0.024610000000     0.381820000000    -0.404627   
O326     O      0.578040000000     0.027770000000     0.382950000000    -0.398438   
O327     O      0.530430000000     0.026280000000     0.335170000000    -0.397376   
O328     O      0.530330000000     0.025790000000     0.430550000000    -0.398712   
O329     O      0.496180000000     0.217200000000     0.333700000000    -0.396703   
O330     O      0.497780000000     0.220690000000     0.428970000000    -0.398072   
O331     O      0.950490000000     0.220570000000     0.381880000000    -0.400167   
O332     O      0.544600000000     0.217130000000     0.381320000000    -0.397384   
O333     O      0.546320000000     0.269130000000     0.381990000000    -0.399772   
O334     O      0.952180000000     0.272380000000     0.377390000000    -0.396176   
O335     O      0.497420000000     0.272690000000     0.426970000000    -0.398467   
O336     O      0.502440000000     0.268930000000     0.331910000000    -0.397367   
O337     O      0.785130000000     0.475400000000     0.436700000000    -0.398975   
O338     O      0.775200000000     0.476370000000     0.341910000000    -0.397171   
O339     O      0.827500000000     0.473910000000     0.385250000000    -0.398741   
O340     O      0.734000000000     0.477550000000     0.394260000000    -0.402019   
O341     O      0.735530000000     0.029500000000     0.391690000000    -0.39722    
O342     O      0.829520000000     0.025830000000     0.388100000000    -0.403164   
O343     O      0.781780000000     0.028090000000     0.341850000000    -0.396697   
O344     O      0.784610000000     0.027440000000     0.437070000000    -0.398686   
O345     O      0.749700000000     0.216440000000     0.319960000000    -0.398871   
O346     O      0.749670000000     0.219490000000     0.415090000000    -0.399364   
O347     O      0.702130000000     0.216660000000     0.367650000000    -0.396789   
O348     O      0.796370000000     0.219350000000     0.366950000000    -0.399692   
O349     O      0.794860000000     0.271170000000     0.362580000000    -0.39762    
O350     O      0.700900000000     0.268660000000     0.368920000000    -0.400842   
O351     O      0.750740000000     0.271490000000     0.413360000000    -0.400541   
O352     O      0.743580000000     0.268230000000     0.318730000000    -0.401299   
O353     O      0.498560000000     0.475990000000     0.683310000000    -0.393309   
O354     O      0.505330000000     0.473850000000     0.587730000000    -0.393937   
O355     O      0.549340000000     0.474580000000     0.638770000000    -0.397378   
O356     O      0.955410000000     0.474830000000     0.632310000000    -0.399208   
O357     O      0.955650000000     0.026830000000     0.633620000000    -0.395736   
O358     O      0.550050000000     0.026490000000     0.635410000000    -0.397601   
O359     O      0.503780000000     0.025840000000     0.586760000000    -0.399142   
O360     O      0.503370000000     0.027890000000     0.681990000000    -0.396551   
O361     O      0.474460000000     0.229120000000     0.678750000000    -0.399685   
O362     O      0.472300000000     0.226600000000     0.583760000000    -0.399773   
O363     O      0.520050000000     0.228110000000     0.630900000000    -0.39811    
O364     O      0.925630000000     0.227850000000     0.631890000000    -0.39638    
O365     O      0.925290000000     0.279770000000     0.628590000000    -0.399117   
O366     O      0.519510000000     0.280130000000     0.631490000000    -0.397152   
O367     O      0.473610000000     0.278590000000     0.582270000000    -0.398147   
O368     O      0.469980000000     0.281060000000     0.677480000000    -0.398105   
O369     O      0.750090000000     0.024650000000     0.685730000000    -0.401198   
O370     O      0.757140000000     0.025920000000     0.590860000000    -0.399042   
O371     O      0.706180000000     0.025540000000     0.634010000000    -0.400352   
O372     O      0.799990000000     0.025370000000     0.642410000000    -0.401913   
O373     O      0.799600000000     0.473350000000     0.643660000000    -0.396154   
O374     O      0.705960000000     0.473570000000     0.631530000000    -0.39854    
O375     O      0.758470000000     0.473910000000     0.590470000000    -0.399611   
O376     O      0.745970000000     0.472680000000     0.684800000000    -0.398061   
O377     O      0.723040000000     0.282260000000     0.660340000000    -0.398316   
O378     O      0.722330000000     0.278110000000     0.565250000000    -0.399359   
O379     O      0.675890000000     0.279950000000     0.613340000000    -0.397824   
O380     O      0.770270000000     0.280220000000     0.611990000000    -0.396717   
O381     O      0.770550000000     0.228190000000     0.611630000000    -0.399287   
O382     O      0.676460000000     0.228120000000     0.617860000000    -0.396557   
O383     O      0.720630000000     0.226150000000     0.567450000000    -0.399005   
O384     O      0.727880000000     0.230370000000     0.662270000000    -0.398229   
O385     O      0.535670000000     0.481230000000     0.181580000000    -0.397836   
O386     O      0.531660000000     0.492740000000     0.087110000000    -0.398737   
O387     O      0.535420000000     0.534540000000     0.139690000000    -0.397099   
O388     O      0.531820000000     0.940510000000     0.128830000000    -0.400101   
O389     O      0.980290000000     0.941880000000     0.133790000000    -0.397484   
O390     O      0.983680000000     0.536290000000     0.139520000000    -0.400938   
O391     O      0.979930000000     0.992160000000     0.089300000000    -0.398796   
O392     O      0.984210000000     0.987380000000     0.184300000000    -0.397748   
O393     O      0.531790000000     0.741300000000     0.080240000000    -0.396994   
O394     O      0.536230000000     0.735800000000     0.175380000000    -0.397145   
O395     O      0.535600000000     0.690800000000     0.124540000000    -0.397319   
O396     O      0.532600000000     0.785150000000     0.131240000000    -0.400305   
O397     O      0.981090000000     0.783240000000     0.136210000000    -0.396511   
O398     O      0.983840000000     0.689300000000     0.124300000000    -0.399603   
O399     O      0.984770000000     0.729500000000     0.177340000000    -0.39658    
O400     O      0.980090000000     0.741750000000     0.082820000000    -0.396864   
O401     O      0.780400000000     0.014440000000     0.184920000000    -0.394865   
O402     O      0.774490000000     0.997510000000     0.091140000000    -0.395953   
O403     O      0.775630000000     0.552310000000     0.129580000000    -0.397663   
O404     O      0.779550000000     0.958910000000     0.145620000000    -0.394105   
O405     O      0.727820000000     0.957070000000     0.146750000000    -0.396849   
O406     O      0.724210000000     0.551330000000     0.135570000000    -0.394049   
O407     O      0.722820000000     0.998120000000     0.094480000000    -0.398057   
O408     O      0.728990000000     0.008630000000     0.188780000000    -0.39841    
O409     O      0.774320000000     0.758270000000     0.070200000000    -0.398338   
O410     O      0.781820000000     0.755400000000     0.165010000000    -0.399381   
O411     O      0.776360000000     0.709670000000     0.117260000000    -0.396437   
O412     O      0.779590000000     0.804630000000     0.118790000000    -0.394724   
O413     O      0.727860000000     0.806150000000     0.119960000000    -0.399378   
O414     O      0.725080000000     0.711500000000     0.124230000000    -0.395625   
O415     O      0.730460000000     0.761860000000     0.168950000000    -0.400586   
O416     O      0.722710000000     0.757440000000     0.074280000000    -0.398633   
O417     O      0.525230000000     0.023030000000     0.934210000000    -0.399106   
O418     O      0.521110000000     0.021350000000     0.838980000000    -0.397003   
O419     O      0.521350000000     0.568710000000     0.885860000000    -0.40311    
O420     O      0.525190000000     0.974510000000     0.888230000000    -0.398663   
O421     O      0.973650000000     0.972780000000     0.893090000000    -0.400776   
O422     O      0.969600000000     0.566830000000     0.885580000000    -0.398867   
O423     O      0.969680000000     0.014960000000     0.841380000000    -0.396706   
O424     O      0.973490000000     0.023340000000     0.936350000000    -0.398551   
O425     O      0.524590000000     0.769450000000     0.924330000000    -0.398151   
O426     O      0.520710000000     0.769810000000     0.829190000000    -0.399435   
O427     O      0.524170000000     0.817360000000     0.876870000000    -0.399808   
O428     O      0.521030000000     0.723040000000     0.875720000000    -0.402753   
O429     O      0.969270000000     0.724770000000     0.875050000000    -0.399538   
O430     O      0.972640000000     0.818830000000     0.881920000000    -0.402676   
O431     O      0.969250000000     0.776230000000     0.831440000000    -0.398232   
O432     O      0.972860000000     0.768640000000     0.926460000000    -0.397026   
O433     O      0.712040000000     0.002480000000     0.937380000000    -0.397949   
O434     O      0.706260000000     0.000440000000     0.842160000000    -0.397352   
O435     O      0.710800000000     0.954460000000     0.890480000000    -0.397381   
O436     O      0.707200000000     0.549090000000     0.889290000000    -0.397045   
O437     O      0.758940000000     0.550940000000     0.888960000000    -0.399436   
O438     O      0.762200000000     0.956230000000     0.884520000000    -0.393874   
O439     O      0.757670000000     0.007150000000     0.839470000000    -0.400636   
O440     O      0.763710000000     0.001940000000     0.934060000000    -0.400458   
O441     O      0.762280000000     0.750820000000     0.911970000000    -0.398353   
O442     O      0.754430000000     0.749310000000     0.817070000000    -0.397906   
O443     O      0.759750000000     0.798310000000     0.863910000000    -0.396223   
O444     O      0.757190000000     0.703630000000     0.864980000000    -0.400099   
O445     O      0.705450000000     0.704930000000     0.866570000000    -0.396071   
O446     O      0.708440000000     0.799660000000     0.870750000000    -0.398037   
O447     O      0.703040000000     0.755250000000     0.821310000000    -0.397681   
O448     O      0.710680000000     0.749900000000     0.916100000000    -0.398534   
O449     O      0.529780000000     0.973770000000     0.430220000000    -0.396455   
O450     O      0.536710000000     0.974510000000     0.335010000000    -0.394923   
O451     O      0.579700000000     0.975820000000     0.385470000000    -0.398063   
O452     O      0.985780000000     0.972680000000     0.378870000000    -0.398006   
O453     O      0.984170000000     0.524610000000     0.381820000000    -0.402635   
O454     O      0.578040000000     0.527770000000     0.382950000000    -0.39892    
O455     O      0.530430000000     0.526280000000     0.335170000000    -0.397826   
O456     O      0.530330000000     0.525790000000     0.430550000000    -0.396637   
O457     O      0.496180000000     0.717210000000     0.333700000000    -0.39685    
O458     O      0.497780000000     0.720700000000     0.428970000000    -0.39822    
O459     O      0.950490000000     0.720580000000     0.381880000000    -0.40031    
O460     O      0.544600000000     0.717130000000     0.381320000000    -0.397387   
O461     O      0.546320000000     0.769130000000     0.381990000000    -0.399769   
O462     O      0.952180000000     0.772380000000     0.377390000000    -0.396214   
O463     O      0.497420000000     0.772690000000     0.426970000000    -0.398511   
O464     O      0.502440000000     0.768930000000     0.331910000000    -0.397415   
O465     O      0.785130000000     0.975410000000     0.436700000000    -0.397113   
O466     O      0.775200000000     0.976370000000     0.341910000000    -0.395092   
O467     O      0.827500000000     0.973910000000     0.385250000000    -0.399158   
O468     O      0.734000000000     0.977550000000     0.394260000000    -0.399991   
O469     O      0.735530000000     0.529500000000     0.391690000000    -0.397812   
O470     O      0.829520000000     0.525830000000     0.388100000000    -0.401291   
O471     O      0.781780000000     0.528090000000     0.341850000000    -0.397289   
O472     O      0.784610000000     0.527440000000     0.437070000000    -0.399225   
O473     O      0.749700000000     0.716440000000     0.319960000000    -0.398845   
O474     O      0.749670000000     0.719490000000     0.415090000000    -0.399256   
O475     O      0.702130000000     0.716660000000     0.367650000000    -0.396769   
O476     O      0.796370000000     0.719350000000     0.366950000000    -0.39962    
O477     O      0.794860000000     0.771180000000     0.362580000000    -0.397451   
O478     O      0.700900000000     0.768660000000     0.368920000000    -0.40082    
O479     O      0.750740000000     0.771490000000     0.413360000000    -0.400607   
O480     O      0.743580000000     0.768230000000     0.318730000000    -0.401281   
O481     O      0.498560000000     0.975990000000     0.683310000000    -0.391247   
O482     O      0.505330000000     0.973850000000     0.587730000000    -0.394402   
O483     O      0.549340000000     0.974570000000     0.638770000000    -0.395209   
O484     O      0.955410000000     0.974830000000     0.632310000000    -0.397234   
O485     O      0.955650000000     0.526830000000     0.633620000000    -0.396264   
O486     O      0.550050000000     0.526490000000     0.635410000000    -0.398207   
O487     O      0.503780000000     0.525840000000     0.586760000000    -0.397224   
O488     O      0.503370000000     0.527890000000     0.681990000000    -0.397142   
O489     O      0.474460000000     0.729120000000     0.678750000000    -0.399638   
O490     O      0.472300000000     0.726600000000     0.583760000000    -0.399772   
O491     O      0.520050000000     0.728110000000     0.630900000000    -0.398114   
O492     O      0.925630000000     0.727850000000     0.631890000000    -0.396383   
O493     O      0.925290000000     0.779770000000     0.628590000000    -0.399113   
O494     O      0.519510000000     0.780130000000     0.631490000000    -0.397149   
O495     O      0.473610000000     0.778590000000     0.582270000000    -0.398144   
O496     O      0.469980000000     0.781070000000     0.677480000000    -0.397939   
O497     O      0.750090000000     0.524650000000     0.685730000000    -0.399089   
O498     O      0.757140000000     0.525920000000     0.590860000000    -0.399483   
O499     O      0.706180000000     0.525540000000     0.634010000000    -0.398319   
O500     O      0.799990000000     0.525370000000     0.642410000000    -0.399865   
O501     O      0.799600000000     0.973360000000     0.643660000000    -0.396842   
O502     O      0.705960000000     0.973570000000     0.631530000000    -0.399106   
O503     O      0.758470000000     0.973910000000     0.590470000000    -0.397729   
O504     O      0.745970000000     0.972680000000     0.684800000000    -0.398512   
O505     O      0.723040000000     0.782250000000     0.660340000000    -0.398472   
O506     O      0.722330000000     0.778110000000     0.565250000000    -0.399368   
O507     O      0.675890000000     0.779950000000     0.613340000000    -0.39783    
O508     O      0.770270000000     0.780220000000     0.611990000000    -0.396781   
O509     O      0.770550000000     0.728200000000     0.611630000000    -0.399448   
O510     O      0.676460000000     0.728120000000     0.617860000000    -0.396566   
O511     O      0.720630000000     0.726150000000     0.567450000000    -0.399016   
O512     O      0.727880000000     0.730370000000     0.662270000000    -0.398295   


