data_structure

_audit_creation_method RASPA-1.0
_audit_creation_date 2023-6-4
_audit_author_name 'Poobodin Mano'

_cell_length_a    28.3258
_cell_length_b    28.557
_cell_length_c    21.2288
_cell_angle_alpha 89.9989
_cell_angle_beta  89.9989
_cell_angle_gamma 96.7603
_cell_volume      17052.6

_symmetry_cell_setting          triclinic
_symmetry_space_group_name_Hall 'P 1'
_symmetry_space_group_name_H-M  'P 1'
_symmetry_Int_Tables_number     1

_symmetry_equiv_pos_as_xyz 'x,y,z'

loop_
_atom_site_label
_atom_site_type_symbol
_atom_site_fract_x
_atom_site_fract_y
_atom_site_fract_z
_atom_site_charge
Br1      Br     0.336240000000     0.254370000000     0.773490000000    -0.206524   
Br2      Br     0.275230000000     0.154340000000     0.197730000000    -0.233959   
Br3      Br     0.053110000000     0.353450000000     0.610720000000    -0.229268   
Br4      Br     0.471280000000     0.355520000000     0.391860000000    -0.234581   
Br5      Br     0.357050000000     0.025780000000     0.616030000000    -0.220988   
Br6      Br     0.254520000000     0.118110000000     0.553800000000    -0.265191   
Br7      Br     0.170390000000     0.354030000000     0.870450000000    -0.241646   
Br8      Br     0.279320000000     0.354140000000     0.117180000000    -0.206721   
Br9      Br     0.315020000000     0.148510000000     0.871160000000    -0.212638   
Br10     Br     0.182960000000     0.027100000000     0.074120000000    -0.22705    
Br11     Br     0.336240000000     0.754370000000     0.773490000000    -0.206517   
Br12     Br     0.275230000000     0.654350000000     0.197730000000    -0.23394    
Br13     Br     0.053110000000     0.853450000000     0.610720000000    -0.229257   
Br14     Br     0.471280000000     0.855520000000     0.391860000000    -0.234537   
Br15     Br     0.357050000000     0.525780000000     0.616030000000    -0.220825   
Br16     Br     0.254520000000     0.618110000000     0.553800000000    -0.265156   
Br17     Br     0.170390000000     0.854030000000     0.870450000000    -0.241605   
Br18     Br     0.279320000000     0.854140000000     0.117180000000    -0.206682   
Br19     Br     0.315020000000     0.648510000000     0.871160000000    -0.212602   
Br20     Br     0.182960000000     0.527100000000     0.074120000000    -0.226897   
Br21     Br     0.836240000000     0.254370000000     0.773490000000    -0.206521   
Br22     Br     0.775230000000     0.154340000000     0.197730000000    -0.23396    
Br23     Br     0.553110000000     0.353450000000     0.610720000000    -0.229268   
Br24     Br     0.971280000000     0.355520000000     0.391860000000    -0.234569   
Br25     Br     0.857050000000     0.025780000000     0.616030000000    -0.220992   
Br26     Br     0.754510000000     0.118110000000     0.553800000000    -0.265187   
Br27     Br     0.670390000000     0.354030000000     0.870450000000    -0.241646   
Br28     Br     0.779320000000     0.354140000000     0.117180000000    -0.206726   
Br29     Br     0.815020000000     0.148510000000     0.871160000000    -0.212637   
Br30     Br     0.682960000000     0.027100000000     0.074120000000    -0.227063   
Br31     Br     0.836240000000     0.754370000000     0.773490000000    -0.206515   
Br32     Br     0.775230000000     0.654350000000     0.197730000000    -0.23394    
Br33     Br     0.553110000000     0.853450000000     0.610720000000    -0.229257   
Br34     Br     0.971280000000     0.855520000000     0.391860000000    -0.234525   
Br35     Br     0.857050000000     0.525780000000     0.616030000000    -0.220829   
Br36     Br     0.754510000000     0.618110000000     0.553800000000    -0.265151   
Br37     Br     0.670390000000     0.854030000000     0.870450000000    -0.241605   
Br38     Br     0.779320000000     0.854140000000     0.117180000000    -0.206687   
Br39     Br     0.815020000000     0.648510000000     0.871160000000    -0.212603   
Br40     Br     0.682960000000     0.527100000000     0.074120000000    -0.226899   
C1       C      0.038020000000     0.426620000000     0.991430000000     0.396757   
C2       C      0.454500000000     0.085560000000     0.988310000000     0.394224   
C3       C      0.082740000000     0.052480000000     0.989580000000     0.417559   
C4       C      0.409800000000     0.460250000000     0.992110000000     0.40857    
C5       C      0.089750000000     0.447420000000     0.538400000000     0.410286   
C6       C      0.450970000000     0.058950000000     0.539620000000     0.411521   
C7       C      0.080020000000     0.080660000000     0.564770000000     0.407712   
C8       C      0.461800000000     0.427470000000     0.517720000000     0.422244   
C9       C      0.245660000000     0.259000000000     0.880380000000     0.487784   
C10      C      0.252840000000     0.255820000000     0.119180000000     0.453302   
C11      C      0.316430000000     0.208070000000     0.995470000000     0.472866   
C12      C      0.175560000000     0.303670000000     0.000690000000     0.474736   
C13      C      0.266560000000     0.239110000000     0.380950000000     0.480549   
C14      C      0.248190000000     0.255050000000     0.618070000000     0.471493   
C15      C      0.324040000000     0.191380000000     0.524560000000     0.441213   
C16      C      0.201250000000     0.306370000000     0.491840000000     0.454385   
C17      C      0.211300000000     0.225130000000     0.716680000000    -0.00777509 
C18      C      0.265660000000     0.302800000000     0.714540000000    -0.0388335  
C19      C      0.200060000000     0.241340000000     0.782940000000    -0.00179379 
C20      C      0.281820000000     0.289660000000     0.780520000000     0.121093   
C21      C      0.308890000000     0.258160000000     0.280580000000    -0.0104008  
C22      C      0.227080000000     0.210870000000     0.283010000000    -0.0366827  
C23      C      0.292250000000     0.281530000000     0.221150000000    -0.00276605 
C24      C      0.236290000000     0.205250000000     0.212260000000     0.113659   
C25      C      0.176380000000     0.383200000000     0.457980000000    -0.0105757  
C26      C      0.123250000000     0.328270000000     0.526470000000    -0.0418359  
C27      C      0.165710000000     0.425040000000     0.498930000000    -0.0107366  
C28      C      0.115260000000     0.369420000000     0.570680000000     0.112932   
C29      C      0.370510000000     0.336470000000     0.560280000000    -0.0355156  
C30      C      0.378760000000     0.331210000000     0.444360000000    -0.0656116  
C31      C      0.424090000000     0.350910000000     0.557220000000     0.00721496 
C32      C      0.418600000000     0.372480000000     0.442660000000     0.126459   
C33      C      0.408470000000     0.175350000000     0.529580000000    -0.0125634  
C34      C      0.343350000000     0.119150000000     0.577450000000    -0.080605   
C35      C      0.429650000000     0.133590000000     0.500450000000    -0.00708334 
C36      C      0.368080000000     0.076930000000     0.554670000000     0.124576   
C37      C      0.102910000000     0.163470000000     0.540840000000    -0.00608961 
C38      C      0.158130000000     0.115740000000     0.595130000000    -0.0447505  
C39      C      0.132240000000     0.164230000000     0.480440000000    -0.0156512  
C40      C      0.187880000000     0.115550000000     0.534690000000     0.109278   
C41      C      0.060790000000     0.353330000000     0.041790000000    -0.0122865  
C42      C      0.087980000000     0.376260000000     0.932920000000    -0.0451892  
C43      C      0.108950000000     0.334020000000     0.053970000000    -0.00869127 
C44      C      0.138940000000     0.368230000000     0.949220000000     0.116856   
C45      C      0.338550000000     0.427310000000     0.932830000000    -0.00370525 
C46      C      0.338780000000     0.428000000000     0.052160000000    -0.0308652  
C47      C      0.320260000000     0.374500000000     0.932520000000    -0.0275429  
C48      C      0.299030000000     0.387830000000     0.041390000000     0.086814   
C49      C      0.432610000000     0.160560000000     0.034440000000    -0.0121133  
C50      C      0.401240000000     0.132070000000     0.929320000000    -0.0461489  
C51      C      0.384760000000     0.180130000000     0.047760000000    -0.0104407  
C52      C      0.350850000000     0.140170000000     0.948490000000     0.116613   
C53      C      0.170290000000     0.141550000000     0.933370000000    -0.0356589  
C54      C      0.192670000000     0.125110000000     0.041330000000    -0.0681487  
C55      C      0.152860000000     0.088610000000     0.930250000000     0.0055281  
C56      C      0.154540000000     0.082940000000     0.048740000000     0.128756   
C57      C      0.038020000000     0.926620000000     0.991430000000     0.396714   
C58      C      0.454500000000     0.585560000000     0.988310000000     0.394263   
C59      C      0.082740000000     0.552480000000     0.989580000000     0.417576   
C60      C      0.409790000000     0.960260000000     0.992110000000     0.408494   
C61      C      0.089750000000     0.947420000000     0.538400000000     0.410282   
C62      C      0.450970000000     0.558950000000     0.539620000000     0.411518   
C63      C      0.080020000000     0.580660000000     0.564770000000     0.40769    
C64      C      0.461800000000     0.927470000000     0.517720000000     0.422241   
C65      C      0.245660000000     0.759000000000     0.880380000000     0.487768   
C66      C      0.252840000000     0.755820000000     0.119180000000     0.453296   
C67      C      0.316430000000     0.708070000000     0.995470000000     0.472761   
C68      C      0.175560000000     0.803670000000     0.000690000000     0.474631   
C69      C      0.266560000000     0.739110000000     0.380950000000     0.480669   
C70      C      0.248190000000     0.755050000000     0.618070000000     0.471499   
C71      C      0.324040000000     0.691380000000     0.524560000000     0.441223   
C72      C      0.201250000000     0.806370000000     0.491840000000     0.454089   
C73      C      0.211300000000     0.725130000000     0.716680000000    -0.00777586 
C74      C      0.265660000000     0.802800000000     0.714540000000    -0.038836   
C75      C      0.200060000000     0.741340000000     0.782940000000    -0.00179527 
C76      C      0.281820000000     0.789660000000     0.780520000000     0.121093   
C77      C      0.308890000000     0.758160000000     0.280580000000    -0.0103954  
C78      C      0.227080000000     0.710870000000     0.283010000000    -0.0366849  
C79      C      0.292250000000     0.781530000000     0.221150000000    -0.0027691  
C80      C      0.236290000000     0.705250000000     0.212260000000     0.113682   
C81      C      0.176380000000     0.883200000000     0.457980000000    -0.0105859  
C82      C      0.123250000000     0.828270000000     0.526470000000    -0.0418526  
C83      C      0.165710000000     0.925040000000     0.498930000000    -0.0107414  
C84      C      0.115260000000     0.869420000000     0.570680000000     0.112941   
C85      C      0.370510000000     0.836470000000     0.560280000000    -0.0355046  
C86      C      0.378760000000     0.831210000000     0.444360000000    -0.0656042  
C87      C      0.424100000000     0.850910000000     0.557220000000     0.00719654 
C88      C      0.418600000000     0.872480000000     0.442660000000     0.126452   
C89      C      0.408470000000     0.675350000000     0.529580000000    -0.0125628  
C90      C      0.343350000000     0.619150000000     0.577450000000    -0.0805973  
C91      C      0.429650000000     0.633590000000     0.500450000000    -0.00708474 
C92      C      0.368080000000     0.576930000000     0.554670000000     0.124563   
C93      C      0.102910000000     0.663470000000     0.540840000000    -0.00609054 
C94      C      0.158130000000     0.615740000000     0.595130000000    -0.0447872  
C95      C      0.132240000000     0.664230000000     0.480440000000    -0.0156502  
C96      C      0.187880000000     0.615550000000     0.534690000000     0.109287   
C97      C      0.060790000000     0.853330000000     0.041790000000    -0.0123055  
C98      C      0.087980000000     0.876260000000     0.932920000000    -0.0451514  
C99      C      0.108950000000     0.834020000000     0.053970000000    -0.00868891 
C100     C      0.138940000000     0.868230000000     0.949220000000     0.116841   
C101     C      0.338550000000     0.927310000000     0.932830000000    -0.00371029 
C102     C      0.338780000000     0.928000000000     0.052160000000    -0.0309008  
C103     C      0.320260000000     0.874500000000     0.932520000000    -0.0275366  
C104     C      0.299030000000     0.887830000000     0.041390000000     0.0868268  
C105     C      0.432610000000     0.660560000000     0.034440000000    -0.0121072  
C106     C      0.401240000000     0.632070000000     0.929320000000    -0.0461252  
C107     C      0.384760000000     0.680130000000     0.047760000000    -0.0104462  
C108     C      0.350850000000     0.640170000000     0.948490000000     0.116607   
C109     C      0.170290000000     0.641550000000     0.933370000000    -0.03566    
C110     C      0.192670000000     0.625120000000     0.041330000000    -0.0681489  
C111     C      0.152860000000     0.588610000000     0.930250000000     0.00551892 
C112     C      0.154550000000     0.582940000000     0.048740000000     0.128736   
C113     C      0.538020000000     0.426620000000     0.991430000000     0.39667    
C114     C      0.954500000000     0.085560000000     0.988310000000     0.394226   
C115     C      0.582740000000     0.052480000000     0.989580000000     0.417557   
C116     C      0.909790000000     0.460250000000     0.992110000000     0.408517   
C117     C      0.589750000000     0.447420000000     0.538400000000     0.410285   
C118     C      0.950960000000     0.058950000000     0.539620000000     0.411472   
C119     C      0.580020000000     0.080660000000     0.564770000000     0.4077     
C120     C      0.961800000000     0.427470000000     0.517720000000     0.422243   
C121     C      0.745660000000     0.259000000000     0.880380000000     0.487784   
C122     C      0.752840000000     0.255820000000     0.119180000000     0.453303   
C123     C      0.816430000000     0.208070000000     0.995470000000     0.472866   
C124     C      0.675560000000     0.303670000000     0.000690000000     0.474737   
C125     C      0.766560000000     0.239110000000     0.380950000000     0.480551   
C126     C      0.748190000000     0.255050000000     0.618070000000     0.471498   
C127     C      0.824040000000     0.191380000000     0.524560000000     0.441219   
C128     C      0.701240000000     0.306370000000     0.491840000000     0.454179   
C129     C      0.711300000000     0.225130000000     0.716680000000    -0.00777502 
C130     C      0.765660000000     0.302800000000     0.714540000000    -0.0388329  
C131     C      0.700060000000     0.241340000000     0.782940000000    -0.00179385 
C132     C      0.781820000000     0.289660000000     0.780520000000     0.121093   
C133     C      0.808900000000     0.258160000000     0.280580000000    -0.0104856  
C134     C      0.727080000000     0.210870000000     0.283010000000    -0.0366852  
C135     C      0.792250000000     0.281530000000     0.221150000000    -0.00273116 
C136     C      0.736290000000     0.205250000000     0.212260000000     0.113662   
C137     C      0.676380000000     0.383200000000     0.457980000000    -0.0105305  
C138     C      0.623250000000     0.328270000000     0.526470000000    -0.0418393  
C139     C      0.665720000000     0.425040000000     0.498930000000    -0.0108075  
C140     C      0.615260000000     0.369420000000     0.570680000000     0.112938   
C141     C      0.870510000000     0.336470000000     0.560280000000    -0.0355208  
C142     C      0.878770000000     0.331210000000     0.444360000000    -0.065648   
C143     C      0.924090000000     0.350910000000     0.557220000000     0.00721685 
C144     C      0.918600000000     0.372480000000     0.442660000000     0.126479   
C145     C      0.908470000000     0.175350000000     0.529580000000    -0.0125648  
C146     C      0.843350000000     0.119150000000     0.577450000000    -0.0805893  
C147     C      0.929650000000     0.133590000000     0.500450000000    -0.00707378 
C148     C      0.868080000000     0.076930000000     0.554670000000     0.124571   
C149     C      0.602910000000     0.163470000000     0.540840000000    -0.00609155 
C150     C      0.658130000000     0.115740000000     0.595130000000    -0.044763   
C151     C      0.632240000000     0.164230000000     0.480440000000    -0.0156514  
C152     C      0.687880000000     0.115550000000     0.534690000000     0.109311   
C153     C      0.560790000000     0.353330000000     0.041790000000    -0.0123121  
C154     C      0.587980000000     0.376260000000     0.932920000000    -0.0451816  
C155     C      0.608950000000     0.334020000000     0.053970000000    -0.00869338 
C156     C      0.638940000000     0.368230000000     0.949220000000     0.116855   
C157     C      0.838550000000     0.427310000000     0.932830000000    -0.00369967 
C158     C      0.838780000000     0.428000000000     0.052160000000    -0.0308886  
C159     C      0.820260000000     0.374500000000     0.932520000000    -0.0275427  
C160     C      0.799040000000     0.387830000000     0.041390000000     0.0868477  
C161     C      0.932610000000     0.160560000000     0.034440000000    -0.0121141  
C162     C      0.901240000000     0.132070000000     0.929320000000    -0.0461492  
C163     C      0.884760000000     0.180130000000     0.047760000000    -0.0104402  
C164     C      0.850850000000     0.140170000000     0.948490000000     0.116613   
C165     C      0.670290000000     0.141550000000     0.933370000000    -0.0356588  
C166     C      0.692670000000     0.125110000000     0.041330000000    -0.0681735  
C167     C      0.652860000000     0.088610000000     0.930250000000     0.00552572 
C168     C      0.654550000000     0.082940000000     0.048740000000     0.128766   
C169     C      0.538020000000     0.926620000000     0.991430000000     0.396628   
C170     C      0.954500000000     0.585560000000     0.988310000000     0.394265   
C171     C      0.582740000000     0.552480000000     0.989580000000     0.417574   
C172     C      0.909790000000     0.960260000000     0.992110000000     0.408493   
C173     C      0.589750000000     0.947420000000     0.538400000000     0.410283   
C174     C      0.950960000000     0.558950000000     0.539620000000     0.411471   
C175     C      0.580020000000     0.580660000000     0.564770000000     0.407689   
C176     C      0.961800000000     0.927470000000     0.517720000000     0.422239   
C177     C      0.745660000000     0.759000000000     0.880380000000     0.487768   
C178     C      0.752840000000     0.755820000000     0.119180000000     0.453296   
C179     C      0.816430000000     0.708070000000     0.995470000000     0.472761   
C180     C      0.675560000000     0.803670000000     0.000690000000     0.474632   
C181     C      0.766560000000     0.739110000000     0.380950000000     0.480671   
C182     C      0.748190000000     0.755050000000     0.618070000000     0.471501   
C183     C      0.824040000000     0.691380000000     0.524560000000     0.441226   
C184     C      0.701240000000     0.806370000000     0.491840000000     0.454033   
C185     C      0.711300000000     0.725130000000     0.716680000000    -0.0077758  
C186     C      0.765660000000     0.802800000000     0.714540000000    -0.0388357  
C187     C      0.700060000000     0.741340000000     0.782940000000    -0.00179532 
C188     C      0.781820000000     0.789660000000     0.780520000000     0.121092   
C189     C      0.808890000000     0.758160000000     0.280580000000    -0.0103954  
C190     C      0.727080000000     0.710870000000     0.283010000000    -0.0366848  
C191     C      0.792250000000     0.781530000000     0.221150000000    -0.0027691  
C192     C      0.736290000000     0.705250000000     0.212260000000     0.113682   
C193     C      0.676380000000     0.883200000000     0.457980000000    -0.0105318  
C194     C      0.623250000000     0.828270000000     0.526470000000    -0.0418476  
C195     C      0.665720000000     0.925040000000     0.498930000000    -0.0108143  
C196     C      0.615260000000     0.869420000000     0.570680000000     0.112939   
C197     C      0.870510000000     0.836470000000     0.560280000000    -0.0355222  
C198     C      0.878770000000     0.831210000000     0.444360000000    -0.0656419  
C199     C      0.924090000000     0.850910000000     0.557220000000     0.00722303 
C200     C      0.918600000000     0.872480000000     0.442660000000     0.126472   
C201     C      0.908470000000     0.675350000000     0.529580000000    -0.0125645  
C202     C      0.843350000000     0.619150000000     0.577450000000    -0.0805816  
C203     C      0.929650000000     0.633590000000     0.500450000000    -0.00707496 
C204     C      0.868080000000     0.576930000000     0.554670000000     0.124558   
C205     C      0.602910000000     0.663470000000     0.540840000000    -0.00609151 
C206     C      0.658130000000     0.615740000000     0.595130000000    -0.0447967  
C207     C      0.632240000000     0.664230000000     0.480440000000    -0.0156494  
C208     C      0.687880000000     0.615550000000     0.534690000000     0.109319   
C209     C      0.560790000000     0.853330000000     0.041790000000    -0.0123309  
C210     C      0.587980000000     0.876260000000     0.932920000000    -0.0451437  
C211     C      0.608950000000     0.834020000000     0.053970000000    -0.00869109 
C212     C      0.638940000000     0.868230000000     0.949220000000     0.11684    
C213     C      0.838550000000     0.927310000000     0.932830000000    -0.00371297 
C214     C      0.838780000000     0.928000000000     0.052160000000    -0.0309322  
C215     C      0.820260000000     0.874500000000     0.932520000000    -0.0275353  
C216     C      0.799040000000     0.887830000000     0.041390000000     0.0868616  
C217     C      0.932610000000     0.660560000000     0.034440000000    -0.0121088  
C218     C      0.901240000000     0.632070000000     0.929320000000    -0.0461436  
C219     C      0.884760000000     0.680130000000     0.047760000000    -0.0104455  
C220     C      0.850850000000     0.640170000000     0.948490000000     0.116609   
C221     C      0.670290000000     0.641550000000     0.933370000000    -0.0356599  
C222     C      0.692670000000     0.625120000000     0.041330000000    -0.0681487  
C223     C      0.652860000000     0.588610000000     0.930250000000     0.00551879 
C224     C      0.654550000000     0.582940000000     0.048740000000     0.128736   
Cu1      Cu     0.496230000000     0.005600000000     0.932750000000     0.870905   
Cu2      Cu     0.996450000000     0.506780000000     0.048960000000     0.845911   
Cu3      Cu     0.526490000000     0.011310000000     0.483320000000     0.864309   
Cu4      Cu     0.015650000000     0.497020000000     0.597610000000     0.863295   
Cu5      Cu     0.278250000000     0.296430000000     0.998700000000     1.157      
Cu6      Cu     0.214810000000     0.216890000000     0.999380000000     1.14929    
Cu7      Cu     0.297910000000     0.284380000000     0.497610000000     1.15323    
Cu8      Cu     0.225950000000     0.209900000000     0.502230000000     1.19496    
Cu9      Cu     0.496230000000     0.505600000000     0.932750000000     0.871323   
Cu10     Cu     0.996450000000     0.006780000000     0.048960000000     0.84549    
Cu11     Cu     0.526490000000     0.511310000000     0.483320000000     0.864998   
Cu12     Cu     0.015650000000     0.997020000000     0.597610000000     0.864023   
Cu13     Cu     0.278250000000     0.796430000000     0.998700000000     1.15689    
Cu14     Cu     0.214810000000     0.716890000000     0.999380000000     1.14918    
Cu15     Cu     0.297910000000     0.784380000000     0.497610000000     1.15331    
Cu16     Cu     0.225950000000     0.709900000000     0.502230000000     1.19504    
Cu17     Cu     0.996230000000     0.005600000000     0.932750000000     0.870939   
Cu18     Cu     0.496450000000     0.506780000000     0.048960000000     0.845921   
Cu19     Cu     0.026490000000     0.011310000000     0.483320000000     0.864248   
Cu20     Cu     0.515650000000     0.497020000000     0.597610000000     0.863301   
Cu21     Cu     0.778250000000     0.296430000000     0.998700000000     1.157      
Cu22     Cu     0.714810000000     0.216890000000     0.999380000000     1.14929    
Cu23     Cu     0.797910000000     0.284380000000     0.497610000000     1.15335    
Cu24     Cu     0.725950000000     0.209900000000     0.502230000000     1.19495    
Cu25     Cu     0.996230000000     0.505600000000     0.932750000000     0.871355   
Cu26     Cu     0.496450000000     0.006780000000     0.048960000000     0.845498   
Cu27     Cu     0.026490000000     0.511310000000     0.483320000000     0.864985   
Cu28     Cu     0.515650000000     0.997020000000     0.597610000000     0.864024   
Cu29     Cu     0.778250000000     0.796430000000     0.998700000000     1.1569     
Cu30     Cu     0.714810000000     0.716890000000     0.999380000000     1.14918    
Cu31     Cu     0.797910000000     0.784380000000     0.497610000000     1.15335    
Cu32     Cu     0.725950000000     0.709900000000     0.502230000000     1.19505    
H1       H      0.296520000000     0.320570000000     0.687920000000     0.0657342  
H2       H      0.229070000000     0.192480000000     0.719850000000     0.062697   
H3       H      0.181310000000     0.210790000000     0.808830000000     0.0490007  
H4       H      0.239670000000     0.328870000000     0.719570000000     0.0582785  
H5       H      0.294310000000     0.322800000000     0.806050000000     0.030425   
H6       H      0.177160000000     0.215770000000     0.691240000000     0.0466981  
H7       H      0.175120000000     0.268480000000     0.779310000000     0.0572708  
H8       H      0.216380000000     0.175670000000     0.304510000000     0.068034   
H9       H      0.332010000000     0.230990000000     0.267020000000     0.0598875  
H10      H      0.324410000000     0.294390000000     0.193300000000     0.0573709  
H11      H      0.196250000000     0.231260000000     0.288990000000     0.0512608  
H12      H      0.201290000000     0.193850000000     0.189880000000     0.0309937  
H13      H      0.331390000000     0.285140000000     0.308390000000     0.0495114  
H14      H      0.274040000000     0.312040000000     0.236300000000     0.0595023  
H15      H      0.094040000000     0.323910000000     0.491160000000     0.0691702  
H16      H      0.151550000000     0.380910000000     0.417230000000     0.0506587  
H17      H      0.165390000000     0.456880000000     0.468790000000     0.0505191  
H18      H      0.121640000000     0.295230000000     0.554570000000     0.0651201  
H19      H      0.142660000000     0.371180000000     0.608390000000     0.0352495  
H20      H      0.213060000000     0.390210000000     0.438830000000     0.0518333  
H21      H      0.195540000000     0.432600000000     0.532870000000     0.050391   
H22      H      0.393620000000     0.296890000000     0.446480000000     0.0664121  
H23      H      0.364610000000     0.301480000000     0.583370000000     0.044749   
H24      H      0.441730000000     0.319020000000     0.546380000000     0.0532312  
H25      H      0.358420000000     0.332530000000     0.399970000000     0.0615329  
H26      H      0.405090000000     0.403320000000     0.419660000000     0.0345081  
H27      H      0.354220000000     0.361920000000     0.590570000000     0.0574116  
H28      H      0.437080000000     0.363730000000     0.604260000000     0.0620467  
H29      H      0.352130000000     0.126380000000     0.627870000000     0.087621   
H30      H      0.426530000000     0.184360000000     0.575240000000     0.0529043  
H31      H      0.468730000000     0.143090000000     0.495140000000     0.0413242  
H32      H      0.304710000000     0.112830000000     0.571630000000     0.144487   
H33      H      0.349970000000     0.063590000000     0.510610000000     0.0341828  
H34      H      0.415350000000     0.206280000000     0.497660000000     0.0492277  
H35      H      0.414210000000     0.126810000000     0.452660000000     0.0499709  
H36      H      0.172040000000     0.145880000000     0.625380000000     0.065696   
H37      H      0.115690000000     0.195110000000     0.569390000000     0.0448989  
H38      H      0.131790000000     0.198540000000     0.456170000000     0.0362597  
H39      H      0.160300000000     0.082500000000     0.621890000000     0.0618568  
H40      H      0.177290000000     0.082430000000     0.508110000000     0.0328989  
H41      H      0.064820000000     0.164920000000     0.528970000000     0.0383302  
H42      H      0.116400000000     0.136630000000     0.447370000000     0.0537291  
H43      H      0.069320000000     0.343310000000     0.912340000000     0.0691113  
H44      H      0.034410000000     0.322980000000     0.028530000000     0.0455884  
H45      H      0.102210000000     0.299200000000     0.077880000000     0.0476951  
H46      H      0.089120000000     0.404440000000     0.896620000000     0.0740217  
H47      H      0.157840000000     0.401530000000     0.968460000000     0.0398896  
H48      H      0.047970000000     0.367940000000     0.086340000000     0.0523246  
H49      H      0.129450000000     0.358150000000     0.087920000000     0.0510866  
H50      H      0.363830000000     0.417290000000     0.088370000000     0.0706255  
H51      H      0.360330000000     0.436180000000     0.890000000000     0.0533189  
H52      H      0.345390000000     0.355340000000     0.905210000000     0.0576782  
H53      H      0.323600000000     0.459610000000     0.070070000000     0.0619484  
H54      H      0.266980000000     0.402130000000     0.022400000000     0.0382956  
H55      H      0.307420000000     0.447630000000     0.930160000000     0.0465803  
H56      H      0.285060000000     0.369440000000     0.908840000000     0.0514048  
H57      H      0.418400000000     0.164090000000     0.904810000000     0.073493   
H58      H      0.458260000000     0.190370000000     0.017490000000     0.0457559  
H59      H      0.392130000000     0.216030000000     0.068480000000     0.0512924  
H60      H      0.399020000000     0.102060000000     0.895630000000     0.0741337  
H61      H      0.333690000000     0.107930000000     0.972470000000     0.0349825  
H62      H      0.447170000000     0.148090000000     0.079230000000     0.049891   
H63      H      0.365780000000     0.157610000000     0.084740000000     0.0548682  
H64      H      0.226400000000     0.113910000000     0.022990000000     0.077087   
H65      H      0.204950000000     0.147960000000     0.908580000000     0.0544907  
H66      H      0.184350000000     0.069020000000     0.925110000000     0.0520133  
H67      H      0.199820000000     0.140840000000     0.088440000000     0.0719426  
H68      H      0.130000000000     0.091050000000     0.087130000000     0.0360543  
H69      H      0.144460000000     0.161270000000     0.908250000000     0.0505406  
H70      H      0.130470000000     0.081120000000     0.887620000000     0.0494178  
H71      H      0.296520000000     0.820570000000     0.687920000000     0.0657463  
H72      H      0.229070000000     0.692480000000     0.719850000000     0.0627016  
H73      H      0.181310000000     0.710790000000     0.808830000000     0.0490034  
H74      H      0.239670000000     0.828870000000     0.719570000000     0.0582931  
H75      H      0.294310000000     0.822800000000     0.806050000000     0.0304341  
H76      H      0.177160000000     0.715770000000     0.691240000000     0.0467003  
H77      H      0.175120000000     0.768480000000     0.779310000000     0.0572726  
H78      H      0.216380000000     0.675670000000     0.304510000000     0.0680393  
H79      H      0.332010000000     0.730990000000     0.267020000000     0.0598908  
H80      H      0.324410000000     0.794390000000     0.193300000000     0.0573783  
H81      H      0.196250000000     0.731260000000     0.288990000000     0.0512682  
H82      H      0.201290000000     0.693850000000     0.189880000000     0.030992   
H83      H      0.331390000000     0.785140000000     0.308390000000     0.0495158  
H84      H      0.274040000000     0.812040000000     0.236300000000     0.0595158  
H85      H      0.094040000000     0.823910000000     0.491160000000     0.069176   
H86      H      0.151550000000     0.880910000000     0.417230000000     0.0506827  
H87      H      0.165390000000     0.956880000000     0.468790000000     0.0505851  
H88      H      0.121640000000     0.795230000000     0.554570000000     0.0651234  
H89      H      0.142670000000     0.871180000000     0.608390000000     0.0352677  
H90      H      0.213060000000     0.890210000000     0.438830000000     0.0518644  
H91      H      0.195540000000     0.932600000000     0.532870000000     0.0504403  
H92      H      0.393620000000     0.796890000000     0.446480000000     0.0664086  
H93      H      0.364610000000     0.801480000000     0.583370000000     0.0447458  
H94      H      0.441730000000     0.819020000000     0.546380000000     0.0532346  
H95      H      0.358420000000     0.832530000000     0.399970000000     0.0615432  
H96      H      0.405090000000     0.903320000000     0.419660000000     0.03455    
H97      H      0.354220000000     0.861920000000     0.590570000000     0.0574348  
H98      H      0.437080000000     0.863730000000     0.604260000000     0.0620625  
H99      H      0.352130000000     0.626380000000     0.627870000000     0.0876249  
H100     H      0.426530000000     0.684360000000     0.575240000000     0.0529048  
H101     H      0.468730000000     0.643090000000     0.495140000000     0.0413257  
H102     H      0.304710000000     0.612830000000     0.571630000000     0.144489   
H103     H      0.349970000000     0.563600000000     0.510610000000     0.0342131  
H104     H      0.415350000000     0.706280000000     0.497660000000     0.0492275  
H105     H      0.414210000000     0.626810000000     0.452660000000     0.0499829  
H106     H      0.172040000000     0.645880000000     0.625380000000     0.0657077  
H107     H      0.115690000000     0.695110000000     0.569390000000     0.0449006  
H108     H      0.131790000000     0.698540000000     0.456170000000     0.036266   
H109     H      0.160300000000     0.582510000000     0.621890000000     0.0619083  
H110     H      0.177290000000     0.582430000000     0.508110000000     0.0329308  
H111     H      0.064820000000     0.664920000000     0.528970000000     0.038334   
H112     H      0.116400000000     0.636630000000     0.447370000000     0.0537345  
H113     H      0.069320000000     0.843300000000     0.912340000000     0.0690987  
H114     H      0.034410000000     0.822990000000     0.028530000000     0.0455997  
H115     H      0.102210000000     0.799200000000     0.077880000000     0.0476998  
H116     H      0.089120000000     0.904440000000     0.896620000000     0.0740482  
H117     H      0.157840000000     0.901530000000     0.968460000000     0.0399366  
H118     H      0.047970000000     0.867940000000     0.086340000000     0.05235    
H119     H      0.129450000000     0.858150000000     0.087920000000     0.051113   
H120     H      0.363830000000     0.917290000000     0.088370000000     0.0706599  
H121     H      0.360330000000     0.936180000000     0.890000000000     0.0533585  
H122     H      0.345390000000     0.855340000000     0.905210000000     0.0576853  
H123     H      0.323600000000     0.959600000000     0.070070000000     0.0620247  
H124     H      0.266980000000     0.902130000000     0.022400000000     0.0383222  
H125     H      0.307420000000     0.947630000000     0.930160000000     0.0466339  
H126     H      0.285060000000     0.869440000000     0.908840000000     0.051415   
H127     H      0.418410000000     0.664090000000     0.904810000000     0.073484   
H128     H      0.458260000000     0.690370000000     0.017490000000     0.0457528  
H129     H      0.392130000000     0.716030000000     0.068480000000     0.0512976  
H130     H      0.399020000000     0.602060000000     0.895630000000     0.0741565  
H131     H      0.333690000000     0.607930000000     0.972470000000     0.0350165  
H132     H      0.447170000000     0.648090000000     0.079230000000     0.0498977  
H133     H      0.365780000000     0.657610000000     0.084740000000     0.0548835  
H134     H      0.226400000000     0.613910000000     0.022990000000     0.077094   
H135     H      0.204950000000     0.647960000000     0.908580000000     0.0544976  
H136     H      0.184350000000     0.569020000000     0.925110000000     0.0520519  
H137     H      0.199820000000     0.640840000000     0.088440000000     0.0719493  
H138     H      0.130000000000     0.591050000000     0.087130000000     0.0360756  
H139     H      0.144460000000     0.661270000000     0.908250000000     0.0505411  
H140     H      0.130470000000     0.581130000000     0.887620000000     0.0494433  
H141     H      0.796520000000     0.320570000000     0.687920000000     0.0657348  
H142     H      0.729070000000     0.192480000000     0.719850000000     0.062697   
H143     H      0.681310000000     0.210790000000     0.808830000000     0.0490007  
H144     H      0.739670000000     0.328870000000     0.719570000000     0.0582785  
H145     H      0.794310000000     0.322800000000     0.806050000000     0.0304253  
H146     H      0.677160000000     0.215770000000     0.691240000000     0.0466979  
H147     H      0.675120000000     0.268480000000     0.779310000000     0.0572707  
H148     H      0.716380000000     0.175670000000     0.304510000000     0.0680342  
H149     H      0.832010000000     0.230990000000     0.267020000000     0.0599146  
H150     H      0.824410000000     0.294390000000     0.193300000000     0.0573642  
H151     H      0.696250000000     0.231260000000     0.288990000000     0.0512615  
H152     H      0.701290000000     0.193850000000     0.189880000000     0.0309928  
H153     H      0.831390000000     0.285140000000     0.308390000000     0.0495385  
H154     H      0.774040000000     0.312040000000     0.236300000000     0.059496   
H155     H      0.594040000000     0.323910000000     0.491160000000     0.0691703  
H156     H      0.651540000000     0.380910000000     0.417230000000     0.0506495  
H157     H      0.665390000000     0.456880000000     0.468790000000     0.0505395  
H158     H      0.621640000000     0.295230000000     0.554570000000     0.0651197  
H159     H      0.642670000000     0.371180000000     0.608390000000     0.0352533  
H160     H      0.713060000000     0.390210000000     0.438830000000     0.0518229  
H161     H      0.695540000000     0.432600000000     0.532870000000     0.0504127  
H162     H      0.893620000000     0.296890000000     0.446480000000     0.0664266  
H163     H      0.864610000000     0.301480000000     0.583370000000     0.0447502  
H164     H      0.941730000000     0.319020000000     0.546380000000     0.0532334  
H165     H      0.858420000000     0.332530000000     0.399970000000     0.0615403  
H166     H      0.905090000000     0.403320000000     0.419660000000     0.0345045  
H167     H      0.854220000000     0.361920000000     0.590570000000     0.0574174  
H168     H      0.937080000000     0.363730000000     0.604260000000     0.062049   
H169     H      0.852130000000     0.126380000000     0.627870000000     0.0876182  
H170     H      0.926530000000     0.184360000000     0.575240000000     0.0529079  
H171     H      0.968730000000     0.143090000000     0.495140000000     0.0413273  
H172     H      0.804710000000     0.112830000000     0.571630000000     0.144458   
H173     H      0.849970000000     0.063590000000     0.510610000000     0.0341811  
H174     H      0.915350000000     0.206280000000     0.497660000000     0.0492296  
H175     H      0.914210000000     0.126810000000     0.452660000000     0.0499686  
H176     H      0.672040000000     0.145880000000     0.625380000000     0.0657002  
H177     H      0.615690000000     0.195110000000     0.569390000000     0.0448985  
H178     H      0.631790000000     0.198540000000     0.456170000000     0.0362585  
H179     H      0.660300000000     0.082500000000     0.621890000000     0.0618595  
H180     H      0.677290000000     0.082430000000     0.508110000000     0.032887   
H181     H      0.564820000000     0.164920000000     0.528970000000     0.0383332  
H182     H      0.616400000000     0.136630000000     0.447370000000     0.0537266  
H183     H      0.569320000000     0.343310000000     0.912340000000     0.0691072  
H184     H      0.534410000000     0.322980000000     0.028530000000     0.0455933  
H185     H      0.602210000000     0.299200000000     0.077880000000     0.0476958  
H186     H      0.589120000000     0.404440000000     0.896620000000     0.074019   
H187     H      0.657840000000     0.401530000000     0.968460000000     0.0398906  
H188     H      0.547980000000     0.367940000000     0.086340000000     0.0523274  
H189     H      0.629440000000     0.358150000000     0.087920000000     0.0510856  
H190     H      0.863830000000     0.417290000000     0.088370000000     0.0706285  
H191     H      0.860330000000     0.436180000000     0.890000000000     0.0533156  
H192     H      0.845390000000     0.355340000000     0.905210000000     0.0576795  
H193     H      0.823600000000     0.459610000000     0.070070000000     0.0619518  
H194     H      0.766980000000     0.402130000000     0.022400000000     0.0382972  
H195     H      0.807420000000     0.447630000000     0.930160000000     0.0465779  
H196     H      0.785060000000     0.369440000000     0.908840000000     0.0514045  
H197     H      0.918400000000     0.164090000000     0.904810000000     0.0734959  
H198     H      0.958260000000     0.190370000000     0.017490000000     0.0457608  
H199     H      0.892130000000     0.216030000000     0.068480000000     0.051294   
H200     H      0.899020000000     0.102060000000     0.895630000000     0.0741348  
H201     H      0.833690000000     0.107930000000     0.972470000000     0.0349822  
H202     H      0.947170000000     0.148090000000     0.079230000000     0.0498946  
H203     H      0.865780000000     0.157610000000     0.084740000000     0.0548685  
H204     H      0.726400000000     0.113910000000     0.022990000000     0.0770909  
H205     H      0.704950000000     0.147960000000     0.908580000000     0.0544906  
H206     H      0.684350000000     0.069020000000     0.925110000000     0.052013   
H207     H      0.699820000000     0.140840000000     0.088440000000     0.0719473  
H208     H      0.630000000000     0.091050000000     0.087130000000     0.0360646  
H209     H      0.644460000000     0.161270000000     0.908250000000     0.0505407  
H210     H      0.630470000000     0.081120000000     0.887620000000     0.0494184  
H211     H      0.796520000000     0.820570000000     0.687920000000     0.0657468  
H212     H      0.729070000000     0.692480000000     0.719850000000     0.0627018  
H213     H      0.681310000000     0.710790000000     0.808830000000     0.0490034  
H214     H      0.739670000000     0.828870000000     0.719570000000     0.0582932  
H215     H      0.794310000000     0.822800000000     0.806050000000     0.0304344  
H216     H      0.677160000000     0.715770000000     0.691240000000     0.0467002  
H217     H      0.675120000000     0.768480000000     0.779310000000     0.0572725  
H218     H      0.716380000000     0.675670000000     0.304510000000     0.0680391  
H219     H      0.832010000000     0.730990000000     0.267020000000     0.0598917  
H220     H      0.824410000000     0.794390000000     0.193300000000     0.0573789  
H221     H      0.696250000000     0.731260000000     0.288990000000     0.0512679  
H222     H      0.701290000000     0.693850000000     0.189880000000     0.030992   
H223     H      0.831390000000     0.785140000000     0.308390000000     0.0495164  
H224     H      0.774040000000     0.812040000000     0.236300000000     0.059516   
H225     H      0.594040000000     0.823910000000     0.491160000000     0.0691738  
H226     H      0.651540000000     0.880910000000     0.417230000000     0.050671   
H227     H      0.665390000000     0.956880000000     0.468790000000     0.0506048  
H228     H      0.621640000000     0.795230000000     0.554570000000     0.0651199  
H229     H      0.642670000000     0.871180000000     0.608390000000     0.0352688  
H230     H      0.713060000000     0.890210000000     0.438830000000     0.051853   
H231     H      0.695540000000     0.932600000000     0.532870000000     0.0504627  
H232     H      0.893620000000     0.796890000000     0.446480000000     0.0664245  
H233     H      0.864610000000     0.801480000000     0.583370000000     0.0447513  
H234     H      0.941730000000     0.819020000000     0.546380000000     0.0532303  
H235     H      0.858420000000     0.832530000000     0.399970000000     0.0615508  
H236     H      0.905090000000     0.903320000000     0.419660000000     0.0345463  
H237     H      0.854220000000     0.861920000000     0.590570000000     0.0574427  
H238     H      0.937080000000     0.863730000000     0.604260000000     0.0620578  
H239     H      0.852130000000     0.626380000000     0.627870000000     0.0876222  
H240     H      0.926530000000     0.684360000000     0.575240000000     0.0529088  
H241     H      0.968730000000     0.643090000000     0.495140000000     0.0413312  
H242     H      0.804710000000     0.612830000000     0.571630000000     0.144461   
H243     H      0.849970000000     0.563600000000     0.510610000000     0.0342115  
H244     H      0.915350000000     0.706280000000     0.497660000000     0.0492295  
H245     H      0.914210000000     0.626810000000     0.452660000000     0.0499809  
H246     H      0.672040000000     0.645880000000     0.625380000000     0.065711   
H247     H      0.615690000000     0.695110000000     0.569390000000     0.0449002  
H248     H      0.631790000000     0.698540000000     0.456170000000     0.0362647  
H249     H      0.660300000000     0.582510000000     0.621890000000     0.0619116  
H250     H      0.677290000000     0.582430000000     0.508110000000     0.0329238  
H251     H      0.564820000000     0.664920000000     0.528970000000     0.0383335  
H252     H      0.616400000000     0.636630000000     0.447370000000     0.0537342  
H253     H      0.569320000000     0.843300000000     0.912340000000     0.0690946  
H254     H      0.534410000000     0.822990000000     0.028530000000     0.0456048  
H255     H      0.602210000000     0.799200000000     0.077880000000     0.0477005  
H256     H      0.589120000000     0.904440000000     0.896620000000     0.0740454  
H257     H      0.657840000000     0.901530000000     0.968460000000     0.0399378  
H258     H      0.547980000000     0.867940000000     0.086340000000     0.0523529  
H259     H      0.629440000000     0.858150000000     0.087920000000     0.051112   
H260     H      0.863830000000     0.917290000000     0.088370000000     0.0706655  
H261     H      0.860330000000     0.936180000000     0.890000000000     0.0533598  
H262     H      0.845390000000     0.855340000000     0.905210000000     0.0576859  
H263     H      0.823600000000     0.959600000000     0.070070000000     0.0620319  
H264     H      0.766980000000     0.902130000000     0.022400000000     0.0383235  
H265     H      0.807420000000     0.947630000000     0.930160000000     0.0466342  
H266     H      0.785060000000     0.869440000000     0.908840000000     0.0514146  
H267     H      0.918400000000     0.664090000000     0.904810000000     0.073496   
H268     H      0.958260000000     0.690370000000     0.017490000000     0.0457584  
H269     H      0.892130000000     0.716030000000     0.068480000000     0.0512989  
H270     H      0.899020000000     0.602060000000     0.895630000000     0.0741614  
H271     H      0.833690000000     0.607930000000     0.972470000000     0.0350155  
H272     H      0.947170000000     0.648090000000     0.079230000000     0.0499013  
H273     H      0.865780000000     0.657610000000     0.084740000000     0.0548836  
H274     H      0.726400000000     0.613910000000     0.022990000000     0.0770939  
H275     H      0.704950000000     0.647960000000     0.908580000000     0.0544975  
H276     H      0.684350000000     0.569020000000     0.925110000000     0.0520518  
H277     H      0.699820000000     0.640840000000     0.088440000000     0.0719493  
H278     H      0.630000000000     0.591050000000     0.087130000000     0.0360755  
H279     H      0.644460000000     0.661270000000     0.908250000000     0.0505411  
H280     H      0.630470000000     0.581130000000     0.887620000000     0.0494433  
N1       N      0.243310000000     0.261880000000     0.816140000000    -0.178555   
N2       N      0.242240000000     0.261090000000     0.681320000000    -0.16513    
N3       N      0.259060000000     0.249390000000     0.182990000000    -0.174725   
N4       N      0.268050000000     0.235600000000     0.316760000000    -0.170054   
N5       N      0.121230000000     0.414490000000     0.535130000000    -0.169909   
N6       N      0.168780000000     0.338420000000     0.493040000000    -0.169537   
N7       N      0.435140000000     0.385470000000     0.506520000000    -0.172408   
N8       N      0.346770000000     0.335060000000     0.498290000000    -0.211955   
N9       N      0.418780000000     0.091030000000     0.539560000000    -0.172631   
N10      N      0.357530000000     0.162260000000     0.540910000000    -0.156595   
N11      N      0.181350000000     0.156260000000     0.494080000000    -0.234393   
N12      N      0.109270000000     0.120710000000     0.576610000000    -0.16487    
N13      N      0.138770000000     0.330750000000     0.997280000000    -0.182725   
N14      N      0.062900000000     0.388070000000     0.990260000000    -0.156461   
N15      N      0.316380000000     0.354590000000     0.996560000000    -0.224974   
N16      N      0.364000000000     0.439630000000     0.992240000000    -0.16165    
N17      N      0.352750000000     0.180360000000     0.992670000000    -0.180312   
N18      N      0.428960000000     0.123560000000     0.985760000000    -0.157843   
N19      N      0.128360000000     0.073630000000     0.989230000000    -0.174922   
N20      N      0.175090000000     0.159570000000     0.998460000000    -0.21362    
N21      N      0.243310000000     0.761880000000     0.816140000000    -0.178552   
N22      N      0.242240000000     0.761090000000     0.681320000000    -0.165131   
N23      N      0.259060000000     0.749390000000     0.182990000000    -0.174724   
N24      N      0.268050000000     0.735600000000     0.316760000000    -0.170074   
N25      N      0.121230000000     0.914490000000     0.535130000000    -0.169896   
N26      N      0.168780000000     0.838420000000     0.493040000000    -0.169483   
N27      N      0.435140000000     0.885470000000     0.506520000000    -0.172393   
N28      N      0.346770000000     0.835060000000     0.498290000000    -0.211952   
N29      N      0.418780000000     0.591030000000     0.539560000000    -0.172623   
N30      N      0.357530000000     0.662260000000     0.540910000000    -0.156598   
N31      N      0.181350000000     0.656260000000     0.494080000000    -0.234401   
N32      N      0.109270000000     0.620710000000     0.576610000000    -0.164859   
N33      N      0.138770000000     0.830750000000     0.997280000000    -0.182699   
N34      N      0.062900000000     0.888070000000     0.990260000000    -0.156443   
N35      N      0.316380000000     0.854590000000     0.996560000000    -0.224963   
N36      N      0.364000000000     0.939630000000     0.992240000000    -0.16164    
N37      N      0.352750000000     0.680360000000     0.992670000000    -0.180286   
N38      N      0.428960000000     0.623560000000     0.985760000000    -0.157846   
N39      N      0.128360000000     0.573630000000     0.989230000000    -0.174906   
N40      N      0.175090000000     0.659570000000     0.998460000000    -0.213605   
N41      N      0.743310000000     0.261880000000     0.816140000000    -0.178555   
N42      N      0.742240000000     0.261090000000     0.681320000000    -0.165131   
N43      N      0.759060000000     0.249390000000     0.182990000000    -0.174729   
N44      N      0.768050000000     0.235600000000     0.316760000000    -0.17004    
N45      N      0.621230000000     0.414490000000     0.535130000000    -0.169899   
N46      N      0.668780000000     0.338420000000     0.493040000000    -0.169551   
N47      N      0.935140000000     0.385470000000     0.506520000000    -0.17241    
N48      N      0.846760000000     0.335060000000     0.498290000000    -0.212001   
N49      N      0.918780000000     0.091030000000     0.539560000000    -0.172662   
N50      N      0.857530000000     0.162260000000     0.540910000000    -0.156599   
N51      N      0.681350000000     0.156260000000     0.494080000000    -0.234396   
N52      N      0.609270000000     0.120710000000     0.576610000000    -0.164869   
N53      N      0.638770000000     0.330750000000     0.997280000000    -0.182723   
N54      N      0.562910000000     0.388070000000     0.990260000000    -0.156422   
N55      N      0.816380000000     0.354590000000     0.996560000000    -0.224984   
N56      N      0.864000000000     0.439630000000     0.992240000000    -0.161687   
N57      N      0.852750000000     0.180360000000     0.992670000000    -0.180312   
N58      N      0.928960000000     0.123560000000     0.985760000000    -0.157842   
N59      N      0.628360000000     0.073630000000     0.989230000000    -0.174917   
N60      N      0.675090000000     0.159570000000     0.998460000000    -0.213617   
N61      N      0.743310000000     0.761880000000     0.816140000000    -0.178552   
N62      N      0.742240000000     0.761090000000     0.681320000000    -0.165131   
N63      N      0.759060000000     0.749390000000     0.182990000000    -0.174724   
N64      N      0.768050000000     0.735600000000     0.316760000000    -0.170074   
N65      N      0.621230000000     0.914490000000     0.535130000000    -0.169885   
N66      N      0.668780000000     0.838420000000     0.493040000000    -0.169523   
N67      N      0.935140000000     0.885470000000     0.506520000000    -0.172399   
N68      N      0.846760000000     0.835060000000     0.498290000000    -0.211992   
N69      N      0.918780000000     0.591030000000     0.539560000000    -0.172653   
N70      N      0.857530000000     0.662260000000     0.540910000000    -0.156601   
N71      N      0.681350000000     0.656260000000     0.494080000000    -0.234406   
N72      N      0.609270000000     0.620710000000     0.576610000000    -0.164858   
N73      N      0.638770000000     0.830750000000     0.997280000000    -0.182697   
N74      N      0.562910000000     0.888070000000     0.990260000000    -0.156404   
N75      N      0.816380000000     0.854590000000     0.996560000000    -0.224974   
N76      N      0.864000000000     0.939630000000     0.992240000000    -0.161636   
N77      N      0.852750000000     0.680360000000     0.992670000000    -0.180287   
N78      N      0.928960000000     0.623560000000     0.985760000000    -0.157842   
N79      N      0.628360000000     0.573630000000     0.989230000000    -0.174906   
N80      N      0.675090000000     0.659570000000     0.998460000000    -0.213605   
O1       O      0.029170000000     0.446550000000     0.939280000000    -0.392451   
O2       O      0.463230000000     0.064610000000     0.936910000000    -0.39378    
O3       O      0.060760000000     0.043680000000     0.937390000000    -0.401135   
O4       O      0.431700000000     0.467930000000     0.939620000000    -0.399749   
O5       O      0.430100000000     0.472560000000     0.044440000000    -0.395543   
O6       O      0.062680000000     0.040790000000     0.042290000000    -0.391428   
O7       O      0.467880000000     0.069840000000     0.041500000000    -0.380608   
O8       O      0.024990000000     0.443600000000     0.044010000000    -0.376599   
O9       O      0.080720000000     0.470210000000     0.488520000000    -0.388242   
O10      O      0.472590000000     0.051540000000     0.488240000000    -0.397728   
O11      O      0.070120000000     0.069260000000     0.507520000000    -0.40533    
O12      O      0.480000000000     0.452250000000     0.471350000000    -0.382956   
O13      O      0.469890000000     0.440700000000     0.574640000000    -0.389497   
O14      O      0.063920000000     0.054510000000     0.610750000000    -0.394975   
O15      O      0.462250000000     0.039770000000     0.591520000000    -0.369361   
O16      O      0.068510000000     0.454420000000     0.590460000000    -0.369908   
O17      O      0.280450000000     0.280740000000     0.909890000000    -0.45643    
O18      O      0.269030000000     0.293390000000     0.089260000000    -0.40681    
O19      O      0.324650000000     0.251410000000     0.010700000000    -0.443573   
O20      O      0.217390000000     0.321410000000     0.985940000000    -0.452547   
O21      O      0.168050000000     0.260500000000     0.016660000000    -0.450048   
O22      O      0.274130000000     0.190350000000     0.983060000000    -0.451309   
O23      O      0.231680000000     0.221820000000     0.087670000000    -0.460922   
O24      O      0.212310000000     0.235780000000     0.911190000000    -0.463959   
O25      O      0.296440000000     0.267910000000     0.409520000000    -0.479704   
O26      O      0.278400000000     0.282820000000     0.587180000000    -0.463774   
O27      O      0.337380000000     0.233990000000     0.510030000000    -0.465225   
O28      O      0.244860000000     0.320140000000     0.480640000000    -0.457377   
O29      O      0.188090000000     0.263090000000     0.504460000000    -0.462436   
O30      O      0.279410000000     0.176710000000     0.526440000000    -0.408181   
O31      O      0.223070000000     0.221640000000     0.590130000000    -0.466193   
O32      O      0.234600000000     0.214270000000     0.411940000000    -0.484858   
O33      O      0.029170000000     0.946550000000     0.939280000000    -0.392263   
O34      O      0.463230000000     0.564610000000     0.936910000000    -0.393801   
O35      O      0.060760000000     0.543680000000     0.937390000000    -0.401145   
O36      O      0.431700000000     0.967930000000     0.939620000000    -0.399515   
O37      O      0.430100000000     0.972560000000     0.044440000000    -0.395311   
O38      O      0.062680000000     0.540780000000     0.042290000000    -0.39145    
O39      O      0.467880000000     0.569840000000     0.041500000000    -0.380635   
O40      O      0.024990000000     0.943600000000     0.044010000000    -0.376416   
O41      O      0.080720000000     0.970210000000     0.488520000000    -0.388033   
O42      O      0.472590000000     0.551540000000     0.488240000000    -0.397749   
O43      O      0.070110000000     0.569260000000     0.507520000000    -0.405379   
O44      O      0.480000000000     0.952250000000     0.471350000000    -0.382764   
O45      O      0.469890000000     0.940700000000     0.574640000000    -0.389518   
O46      O      0.063920000000     0.554510000000     0.610750000000    -0.394776   
O47      O      0.462250000000     0.539770000000     0.591520000000    -0.369182   
O48      O      0.068510000000     0.954420000000     0.590460000000    -0.36992    
O49      O      0.280450000000     0.780740000000     0.909890000000    -0.456423   
O50      O      0.269030000000     0.793390000000     0.089260000000    -0.406801   
O51      O      0.324650000000     0.751410000000     0.010700000000    -0.443539   
O52      O      0.217390000000     0.821420000000     0.985940000000    -0.452434   
O53      O      0.168050000000     0.760500000000     0.016660000000    -0.450015   
O54      O      0.274130000000     0.690340000000     0.983060000000    -0.451197   
O55      O      0.231680000000     0.721820000000     0.087670000000    -0.460909   
O56      O      0.212310000000     0.735780000000     0.911190000000    -0.463954   
O57      O      0.296440000000     0.767910000000     0.409520000000    -0.479737   
O58      O      0.278400000000     0.782820000000     0.587180000000    -0.463781   
O59      O      0.337380000000     0.733990000000     0.510030000000    -0.465242   
O60      O      0.244870000000     0.820140000000     0.480640000000    -0.457277   
O61      O      0.188090000000     0.763080000000     0.504460000000    -0.462346   
O62      O      0.279410000000     0.676710000000     0.526440000000    -0.408202   
O63      O      0.223070000000     0.721640000000     0.590130000000    -0.466204   
O64      O      0.234600000000     0.714280000000     0.411940000000    -0.484936   
O65      O      0.529170000000     0.446550000000     0.939280000000    -0.392421   
O66      O      0.963230000000     0.064610000000     0.936910000000    -0.393781   
O67      O      0.560760000000     0.043680000000     0.937390000000    -0.401128   
O68      O      0.931700000000     0.467930000000     0.939620000000    -0.399703   
O69      O      0.930100000000     0.472560000000     0.044440000000    -0.3955     
O70      O      0.562680000000     0.040790000000     0.042290000000    -0.391428   
O71      O      0.967880000000     0.069840000000     0.041500000000    -0.380603   
O72      O      0.524980000000     0.443600000000     0.044010000000    -0.376581   
O73      O      0.580720000000     0.470210000000     0.488520000000    -0.388243   
O74      O      0.972590000000     0.051540000000     0.488240000000    -0.39767    
O75      O      0.570110000000     0.069260000000     0.507520000000    -0.405352   
O76      O      0.980000000000     0.452250000000     0.471350000000    -0.382949   
O77      O      0.969890000000     0.440700000000     0.574640000000    -0.38949    
O78      O      0.563920000000     0.054510000000     0.610750000000    -0.39497    
O79      O      0.962250000000     0.039770000000     0.591520000000    -0.36932    
O80      O      0.568510000000     0.454420000000     0.590460000000    -0.369908   
O81      O      0.780450000000     0.280740000000     0.909890000000    -0.45643    
O82      O      0.769030000000     0.293390000000     0.089260000000    -0.40681    
O83      O      0.824650000000     0.251410000000     0.010700000000    -0.443573   
O84      O      0.717390000000     0.321410000000     0.985940000000    -0.452547   
O85      O      0.668050000000     0.260500000000     0.016660000000    -0.450048   
O86      O      0.774130000000     0.190350000000     0.983060000000    -0.451309   
O87      O      0.731680000000     0.221820000000     0.087670000000    -0.460922   
O88      O      0.712310000000     0.235780000000     0.911190000000    -0.463959   
O89      O      0.796440000000     0.267910000000     0.409520000000    -0.479717   
O90      O      0.778400000000     0.282820000000     0.587180000000    -0.463784   
O91      O      0.837380000000     0.233990000000     0.510030000000    -0.465244   
O92      O      0.744870000000     0.320140000000     0.480640000000    -0.45724    
O93      O      0.688090000000     0.263090000000     0.504460000000    -0.46239    
O94      O      0.779410000000     0.176710000000     0.526440000000    -0.408188   
O95      O      0.723070000000     0.221640000000     0.590130000000    -0.466192   
O96      O      0.734600000000     0.214270000000     0.411940000000    -0.484857   
O97      O      0.529170000000     0.946550000000     0.939280000000    -0.392231   
O98      O      0.963230000000     0.564610000000     0.936910000000    -0.393802   
O99      O      0.560760000000     0.543680000000     0.937390000000    -0.401139   
O100     O      0.931700000000     0.967930000000     0.939620000000    -0.399519   
O101     O      0.930100000000     0.972560000000     0.044440000000    -0.395315   
O102     O      0.562680000000     0.540780000000     0.042290000000    -0.391451   
O103     O      0.967880000000     0.569840000000     0.041500000000    -0.380631   
O104     O      0.524980000000     0.943600000000     0.044010000000    -0.376396   
O105     O      0.580720000000     0.970210000000     0.488520000000    -0.388043   
O106     O      0.972590000000     0.551540000000     0.488240000000    -0.39769    
O107     O      0.570110000000     0.569260000000     0.507520000000    -0.405381   
O108     O      0.980000000000     0.952250000000     0.471350000000    -0.38275    
O109     O      0.969890000000     0.940700000000     0.574640000000    -0.389512   
O110     O      0.563920000000     0.554510000000     0.610750000000    -0.394778   
O111     O      0.962250000000     0.539770000000     0.591520000000    -0.369139   
O112     O      0.568510000000     0.954420000000     0.590460000000    -0.369921   
O113     O      0.780450000000     0.780740000000     0.909890000000    -0.456423   
O114     O      0.769030000000     0.793390000000     0.089260000000    -0.406801   
O115     O      0.824650000000     0.751410000000     0.010700000000    -0.443539   
O116     O      0.717390000000     0.821420000000     0.985940000000    -0.452434   
O117     O      0.668050000000     0.760500000000     0.016660000000    -0.450015   
O118     O      0.774130000000     0.690340000000     0.983060000000    -0.451197   
O119     O      0.731680000000     0.721820000000     0.087670000000    -0.460909   
O120     O      0.712310000000     0.735780000000     0.911190000000    -0.463954   
O121     O      0.796440000000     0.767910000000     0.409520000000    -0.479743   
O122     O      0.778400000000     0.782820000000     0.587180000000    -0.463782   
O123     O      0.837380000000     0.733990000000     0.510030000000    -0.465248   
O124     O      0.744870000000     0.820140000000     0.480640000000    -0.457183   
O125     O      0.688090000000     0.763080000000     0.504460000000    -0.462345   
O126     O      0.779410000000     0.676710000000     0.526440000000    -0.40821    
O127     O      0.723070000000     0.721640000000     0.590130000000    -0.466204   
O128     O      0.734600000000     0.714280000000     0.411940000000    -0.484938   


