data_structure

_audit_creation_method RASPA-1.0
_audit_creation_date 2023-6-4
_audit_author_name 'Poobodin Mano'

_cell_length_a    28.017
_cell_length_b    29.2564
_cell_length_c    21.1955
_cell_angle_alpha 89.9989
_cell_angle_beta  89.9989
_cell_angle_gamma 96.7566
_cell_volume      17252.8

_symmetry_cell_setting          triclinic
_symmetry_space_group_name_Hall 'P 1'
_symmetry_space_group_name_H-M  'P 1'
_symmetry_Int_Tables_number     1

_symmetry_equiv_pos_as_xyz 'x,y,z'

loop_
_atom_site_label
_atom_site_type_symbol
_atom_site_fract_x
_atom_site_fract_y
_atom_site_fract_z
_atom_site_charge
C1       C      0.055270000000     0.408270000000     0.010710000000     0.393657   
C2       C      0.469580000000     0.063340000000     0.005130000000     0.393668   
C3       C      0.098470000000     0.032880000000     0.013740000000     0.409461   
C4       C      0.426030000000     0.438890000000     0.999820000000     0.409665   
C5       C      0.092780000000     0.450590000000     0.506090000000     0.391057   
C6       C      0.436350000000     0.041190000000     0.520030000000     0.387076   
C7       C      0.063970000000     0.078600000000     0.510730000000     0.410287   
C8       C      0.466350000000     0.413920000000     0.519430000000     0.410078   
C9       C      0.252230000000     0.235960000000     0.883130000000     0.472973   
C10      C      0.268770000000     0.237010000000     0.120060000000     0.474007   
C11      C      0.332840000000     0.188050000000     0.996660000000     0.453898   
C12      C      0.191520000000     0.283150000000     0.007850000000     0.450023   
C13      C      0.269460000000     0.243330000000     0.384480000000     0.471237   
C14      C      0.260990000000     0.249820000000     0.625690000000     0.449231   
C15      C      0.306290000000     0.172630000000     0.513000000000     0.447884   
C16      C      0.223000000000     0.320440000000     0.496590000000     0.450165   
C17      C      0.245850000000     0.195710000000     0.780980000000    -0.00722981 
C18      C      0.225600000000     0.276660000000     0.790240000000    -0.0216266  
C19      C      0.276460000000     0.209190000000     0.722690000000    -0.0118239  
C20      C      0.252630000000     0.289890000000     0.728800000000     0.0333618  
C21      C      0.314710000000     0.261670000000     0.285710000000    -0.0100953  
C22      C      0.229380000000     0.219940000000     0.284800000000    -0.0206574  
C23      C      0.303940000000     0.273590000000     0.216860000000    -0.00714346 
C24      C      0.243490000000     0.201010000000     0.221340000000     0.0387452  
C25      C      0.211390000000     0.402340000000     0.520400000000    -0.0095442  
C26      C      0.159240000000     0.356390000000     0.442060000000    -0.02135    
C27      C      0.166310000000     0.421840000000     0.547500000000    -0.0143693  
C28      C      0.114500000000     0.374770000000     0.469260000000     0.030213   
C29      C      0.441550000000     0.340650000000     0.464710000000    -0.00392678 
C30      C      0.424800000000     0.349350000000     0.580390000000    -0.00278912 
C31      C      0.388720000000     0.323530000000     0.454440000000    -0.0189227  
C32      C      0.372110000000     0.334800000000     0.565960000000    -0.0193274  
C33      C      0.405190000000     0.108420000000     0.567230000000    -0.0154985  
C34      C      0.370120000000     0.073930000000     0.465550000000    -0.0263691  
C35      C      0.358220000000     0.129880000000     0.578370000000    -0.00913851 
C36      C      0.321890000000     0.092420000000     0.481130000000     0.0356872  
C37      C      0.091770000000     0.149310000000     0.451170000000    -0.00467601 
C38      C      0.103350000000     0.145740000000     0.568650000000    -0.00110282 
C39      C      0.144860000000     0.167330000000     0.444740000000    -0.0178809  
C40      C      0.156460000000     0.160150000000     0.558240000000    -0.0221825  
C41      C      0.164420000000     0.356620000000     0.038850000000    -0.00892754 
C42      C      0.114940000000     0.303150000000     0.963630000000    -0.0231826  
C43      C      0.118060000000     0.371930000000     0.064780000000    -0.0121546  
C44      C      0.070040000000     0.327140000000     0.981800000000     0.0326755  
C45      C      0.323040000000     0.359560000000     0.941070000000    -0.031558   
C46      C      0.334500000000     0.354280000000     0.055490000000    -0.0459376  
C47      C      0.360470000000     0.401630000000     0.934200000000     0.00381793 
C48      C      0.351240000000     0.406230000000     0.052710000000     0.0469694  
C49      C      0.361330000000     0.115830000000     0.030130000000    -0.00828722 
C50      C      0.408250000000     0.166230000000     0.949280000000    -0.0231529  
C51      C      0.408390000000     0.103310000000     0.056900000000    -0.0132196  
C52      C      0.453910000000     0.143170000000     0.967750000000     0.0320069  
C53      C      0.209890000000     0.105240000000     0.965850000000    -0.0327247  
C54      C      0.187830000000     0.122010000000     0.072890000000    -0.0420642  
C55      C      0.171870000000     0.064080000000     0.958340000000     0.0045801  
C56      C      0.165300000000     0.071270000000     0.077570000000     0.0452414  
C57      C      0.055270000000     0.908270000000     0.010710000000     0.393595   
C58      C      0.469580000000     0.563340000000     0.005130000000     0.393738   
C59      C      0.098470000000     0.532880000000     0.013740000000     0.409504   
C60      C      0.426030000000     0.938890000000     0.999820000000     0.40959    
C61      C      0.092780000000     0.950590000000     0.506090000000     0.39099    
C62      C      0.436350000000     0.541200000000     0.520030000000     0.38712    
C63      C      0.063970000000     0.578600000000     0.510730000000     0.410441   
C64      C      0.466350000000     0.913920000000     0.519430000000     0.410008   
C65      C      0.252230000000     0.735960000000     0.883130000000     0.472971   
C66      C      0.268770000000     0.737010000000     0.120060000000     0.474009   
C67      C      0.332840000000     0.688050000000     0.996660000000     0.453898   
C68      C      0.191520000000     0.783150000000     0.007850000000     0.44986    
C69      C      0.269460000000     0.743330000000     0.384480000000     0.471237   
C70      C      0.260990000000     0.749820000000     0.625690000000     0.449233   
C71      C      0.306290000000     0.672630000000     0.513000000000     0.447836   
C72      C      0.223000000000     0.820440000000     0.496590000000     0.450164   
C73      C      0.245850000000     0.695700000000     0.780980000000    -0.00734827 
C74      C      0.225600000000     0.776660000000     0.790240000000    -0.021628   
C75      C      0.276460000000     0.709190000000     0.722690000000    -0.0117757  
C76      C      0.252630000000     0.789890000000     0.728800000000     0.0333672  
C77      C      0.314710000000     0.761670000000     0.285710000000    -0.0100812  
C78      C      0.229380000000     0.719940000000     0.284800000000    -0.0206483  
C79      C      0.303940000000     0.773590000000     0.216860000000    -0.00717781 
C80      C      0.243490000000     0.701010000000     0.221340000000     0.0387844  
C81      C      0.211390000000     0.902340000000     0.520400000000    -0.00953904 
C82      C      0.159240000000     0.856390000000     0.442060000000    -0.0213467  
C83      C      0.166310000000     0.921840000000     0.547500000000    -0.0143772  
C84      C      0.114500000000     0.874770000000     0.469260000000     0.030213   
C85      C      0.441550000000     0.840650000000     0.464710000000    -0.00393498 
C86      C      0.424800000000     0.849350000000     0.580390000000    -0.00279613 
C87      C      0.388720000000     0.823530000000     0.454440000000    -0.018917   
C88      C      0.372110000000     0.834800000000     0.565960000000    -0.0193247  
C89      C      0.405190000000     0.608420000000     0.567230000000    -0.0155015  
C90      C      0.370120000000     0.573930000000     0.465550000000    -0.0263685  
C91      C      0.358220000000     0.629880000000     0.578370000000    -0.00912257 
C92      C      0.321900000000     0.592420000000     0.481130000000     0.0356914  
C93      C      0.091770000000     0.649310000000     0.451170000000    -0.00467138 
C94      C      0.103350000000     0.645730000000     0.568650000000    -0.00107087 
C95      C      0.144860000000     0.667330000000     0.444740000000    -0.0178824  
C96      C      0.156460000000     0.660150000000     0.558240000000    -0.0221937  
C97      C      0.164410000000     0.856620000000     0.038850000000    -0.00888994 
C98      C      0.114940000000     0.803150000000     0.963630000000    -0.0231892  
C99      C      0.118060000000     0.871930000000     0.064780000000    -0.0121737  
C100     C      0.070040000000     0.827140000000     0.981800000000     0.0326762  
C101     C      0.323040000000     0.859560000000     0.941070000000    -0.0315594  
C102     C      0.334500000000     0.854280000000     0.055490000000    -0.0459399  
C103     C      0.360470000000     0.901630000000     0.934200000000     0.00382358 
C104     C      0.351240000000     0.906230000000     0.052710000000     0.0469823  
C105     C      0.361330000000     0.615820000000     0.030130000000    -0.00834315 
C106     C      0.408250000000     0.666230000000     0.949280000000    -0.02317    
C107     C      0.408390000000     0.603310000000     0.056900000000    -0.013221   
C108     C      0.453910000000     0.643170000000     0.967750000000     0.0320535  
C109     C      0.209890000000     0.605240000000     0.965850000000    -0.0327313  
C110     C      0.187830000000     0.622010000000     0.072890000000    -0.0420925  
C111     C      0.171870000000     0.564080000000     0.958340000000     0.00459807 
C112     C      0.165300000000     0.571270000000     0.077570000000     0.0453514  
C113     C      0.555270000000     0.408270000000     0.010710000000     0.393777   
C114     C      0.969580000000     0.063340000000     0.005130000000     0.393548   
C115     C      0.598470000000     0.032880000000     0.013740000000     0.409565   
C116     C      0.926030000000     0.438890000000     0.999820000000     0.40951    
C117     C      0.592780000000     0.450590000000     0.506090000000     0.391159   
C118     C      0.936350000000     0.041190000000     0.520030000000     0.38696    
C119     C      0.563970000000     0.078600000000     0.510730000000     0.410431   
C120     C      0.966350000000     0.413920000000     0.519430000000     0.409962   
C121     C      0.752230000000     0.235960000000     0.883130000000     0.472979   
C122     C      0.768760000000     0.237010000000     0.120060000000     0.474017   
C123     C      0.832840000000     0.188050000000     0.996660000000     0.453909   
C124     C      0.691520000000     0.283150000000     0.007850000000     0.450095   
C125     C      0.769460000000     0.243330000000     0.384480000000     0.471239   
C126     C      0.760990000000     0.249820000000     0.625690000000     0.449238   
C127     C      0.806290000000     0.172630000000     0.513000000000     0.447838   
C128     C      0.723000000000     0.320440000000     0.496590000000     0.450167   
C129     C      0.745850000000     0.195710000000     0.780980000000    -0.0072312  
C130     C      0.725600000000     0.276660000000     0.790240000000    -0.0216298  
C131     C      0.776460000000     0.209190000000     0.722690000000    -0.0118282  
C132     C      0.752630000000     0.289890000000     0.728800000000     0.0333563  
C133     C      0.814720000000     0.261670000000     0.285710000000    -0.0102236  
C134     C      0.729380000000     0.219940000000     0.284800000000    -0.0206377  
C135     C      0.803940000000     0.273590000000     0.216860000000    -0.0070919  
C136     C      0.743500000000     0.201010000000     0.221340000000     0.0387644  
C137     C      0.711380000000     0.402340000000     0.520400000000    -0.00950059 
C138     C      0.659240000000     0.356390000000     0.442060000000    -0.02134    
C139     C      0.666310000000     0.421840000000     0.547500000000    -0.0143876  
C140     C      0.614500000000     0.374770000000     0.469260000000     0.0301764  
C141     C      0.941550000000     0.340650000000     0.464710000000    -0.00396454 
C142     C      0.924800000000     0.349350000000     0.580390000000    -0.00281115 
C143     C      0.888720000000     0.323530000000     0.454440000000    -0.0188867  
C144     C      0.872110000000     0.334800000000     0.565960000000    -0.0193192  
C145     C      0.905190000000     0.108420000000     0.567230000000    -0.0155297  
C146     C      0.870120000000     0.073930000000     0.465550000000    -0.0263825  
C147     C      0.858220000000     0.129880000000     0.578370000000    -0.0091065  
C148     C      0.821890000000     0.092420000000     0.481130000000     0.0356771  
C149     C      0.591770000000     0.149310000000     0.451170000000    -0.00468485 
C150     C      0.603350000000     0.145740000000     0.568650000000    -0.0011086  
C151     C      0.644870000000     0.167330000000     0.444740000000    -0.0178963  
C152     C      0.656460000000     0.160150000000     0.558240000000    -0.0221797  
C153     C      0.664420000000     0.356620000000     0.038850000000    -0.00889572 
C154     C      0.614940000000     0.303150000000     0.963630000000    -0.02314    
C155     C      0.618060000000     0.371930000000     0.064780000000    -0.0121726  
C156     C      0.570040000000     0.327140000000     0.981800000000     0.0325103  
C157     C      0.823040000000     0.359560000000     0.941070000000    -0.0315448  
C158     C      0.834500000000     0.354280000000     0.055490000000    -0.0459347  
C159     C      0.860470000000     0.401630000000     0.934200000000     0.00379843 
C160     C      0.851240000000     0.406230000000     0.052710000000     0.0469656  
C161     C      0.861330000000     0.115830000000     0.030130000000    -0.00827108 
C162     C      0.908250000000     0.166230000000     0.949280000000    -0.0230984  
C163     C      0.908390000000     0.103310000000     0.056900000000    -0.0132448  
C164     C      0.953910000000     0.143170000000     0.967750000000     0.0318335  
C165     C      0.709890000000     0.105240000000     0.965850000000    -0.032721   
C166     C      0.687830000000     0.122010000000     0.072890000000    -0.0420593  
C167     C      0.671870000000     0.064080000000     0.958340000000     0.00458108 
C168     C      0.665300000000     0.071270000000     0.077570000000     0.0452377  
C169     C      0.555270000000     0.908270000000     0.010710000000     0.39369    
C170     C      0.969580000000     0.563340000000     0.005130000000     0.393621   
C171     C      0.598470000000     0.532880000000     0.013740000000     0.409607   
C172     C      0.926030000000     0.938890000000     0.999820000000     0.409433   
C173     C      0.592780000000     0.950590000000     0.506090000000     0.391105   
C174     C      0.936350000000     0.541200000000     0.520030000000     0.386992   
C175     C      0.563970000000     0.578600000000     0.510730000000     0.410575   
C176     C      0.966340000000     0.913920000000     0.519430000000     0.409904   
C177     C      0.752230000000     0.735960000000     0.883130000000     0.47298    
C178     C      0.768770000000     0.737010000000     0.120060000000     0.474015   
C179     C      0.832840000000     0.688050000000     0.996660000000     0.453773   
C180     C      0.691520000000     0.783150000000     0.007850000000     0.449869   
C181     C      0.769460000000     0.743330000000     0.384480000000     0.471241   
C182     C      0.760990000000     0.749820000000     0.625690000000     0.449361   
C183     C      0.806290000000     0.672630000000     0.513000000000     0.447891   
C184     C      0.723000000000     0.820440000000     0.496590000000     0.450168   
C185     C      0.745850000000     0.695700000000     0.780980000000    -0.00735023 
C186     C      0.725600000000     0.776660000000     0.790240000000    -0.0216326  
C187     C      0.776460000000     0.709190000000     0.722690000000    -0.0117771  
C188     C      0.752630000000     0.789890000000     0.728800000000     0.0333669  
C189     C      0.814710000000     0.761670000000     0.285710000000    -0.0100878  
C190     C      0.729380000000     0.719940000000     0.284800000000    -0.0206504  
C191     C      0.803940000000     0.773590000000     0.216860000000    -0.00717727 
C192     C      0.743490000000     0.701010000000     0.221340000000     0.038778   
C193     C      0.711390000000     0.902340000000     0.520400000000    -0.00953838 
C194     C      0.659250000000     0.856390000000     0.442060000000    -0.0212995  
C195     C      0.666310000000     0.921840000000     0.547500000000    -0.0143799  
C196     C      0.614500000000     0.874770000000     0.469260000000     0.0301625  
C197     C      0.941550000000     0.840650000000     0.464710000000    -0.00395945 
C198     C      0.924800000000     0.849350000000     0.580390000000    -0.0028337  
C199     C      0.888720000000     0.823530000000     0.454440000000    -0.0189043  
C200     C      0.872110000000     0.834800000000     0.565960000000    -0.0193049  
C201     C      0.905190000000     0.608420000000     0.567230000000    -0.0155385  
C202     C      0.870120000000     0.573930000000     0.465550000000    -0.0263981  
C203     C      0.858220000000     0.629880000000     0.578370000000    -0.00911513 
C204     C      0.821900000000     0.592420000000     0.481130000000     0.035716   
C205     C      0.591770000000     0.649310000000     0.451170000000    -0.0046861  
C206     C      0.603350000000     0.645730000000     0.568650000000    -0.00107625 
C207     C      0.644860000000     0.667330000000     0.444740000000    -0.0178745  
C208     C      0.656460000000     0.660150000000     0.558240000000    -0.0221931  
C209     C      0.664420000000     0.856620000000     0.038850000000    -0.00892124 
C210     C      0.614940000000     0.803150000000     0.963630000000    -0.023132   
C211     C      0.618060000000     0.871930000000     0.064780000000    -0.0121698  
C212     C      0.570040000000     0.827140000000     0.981800000000     0.0325155  
C213     C      0.823040000000     0.859560000000     0.941070000000    -0.0315515  
C214     C      0.834500000000     0.854280000000     0.055490000000    -0.0459373  
C215     C      0.860470000000     0.901630000000     0.934200000000     0.00381639 
C216     C      0.851240000000     0.906230000000     0.052710000000     0.0469784  
C217     C      0.861330000000     0.615820000000     0.030130000000    -0.00835195 
C218     C      0.908250000000     0.666230000000     0.949280000000    -0.023121   
C219     C      0.908400000000     0.603310000000     0.056900000000    -0.0132119  
C220     C      0.953910000000     0.643170000000     0.967750000000     0.0318816  
C221     C      0.709890000000     0.605240000000     0.965850000000    -0.0327201  
C222     C      0.687830000000     0.622010000000     0.072890000000    -0.0420895  
C223     C      0.671870000000     0.564080000000     0.958340000000     0.0045851  
C224     C      0.665300000000     0.571270000000     0.077570000000     0.0453555  
Cu1      Cu     0.514860000000     0.986080000000     0.948990000000     0.833982   
Cu2      Cu     0.009870000000     0.485340000000     0.065140000000     0.849772   
Cu3      Cu     0.511560000000     0.995740000000     0.456190000000     0.846248   
Cu4      Cu     0.018410000000     0.496900000000     0.572250000000     0.836417   
Cu5      Cu     0.294040000000     0.275460000000     0.997410000000     1.13971    
Cu6      Cu     0.230740000000     0.195740000000     0.004120000000     1.16501    
Cu7      Cu     0.307170000000     0.273290000000     0.508490000000     1.11775    
Cu8      Cu     0.223240000000     0.220150000000     0.501120000000     1.15301    
Cu9      Cu     0.514860000000     0.486080000000     0.948990000000     0.834746   
Cu10     Cu     0.009870000000     0.985340000000     0.065140000000     0.849004   
Cu11     Cu     0.511560000000     0.495740000000     0.456190000000     0.847028   
Cu12     Cu     0.018410000000     0.996900000000     0.572250000000     0.835724   
Cu13     Cu     0.294040000000     0.775460000000     0.997410000000     1.1397     
Cu14     Cu     0.230740000000     0.695740000000     0.004120000000     1.16507    
Cu15     Cu     0.307170000000     0.773290000000     0.508490000000     1.11775    
Cu16     Cu     0.223240000000     0.720150000000     0.501120000000     1.15302    
Cu17     Cu     0.014860000000     0.986080000000     0.948990000000     0.832806   
Cu18     Cu     0.509870000000     0.485340000000     0.065140000000     0.850984   
Cu19     Cu     0.011560000000     0.995740000000     0.456190000000     0.845039   
Cu20     Cu     0.518410000000     0.496900000000     0.572250000000     0.837592   
Cu21     Cu     0.794040000000     0.275460000000     0.997410000000     1.13971    
Cu22     Cu     0.730740000000     0.195740000000     0.004120000000     1.16504    
Cu23     Cu     0.807170000000     0.273290000000     0.508490000000     1.11775    
Cu24     Cu     0.723240000000     0.220150000000     0.501120000000     1.15301    
Cu25     Cu     0.014860000000     0.486080000000     0.948990000000     0.833563   
Cu26     Cu     0.509870000000     0.985340000000     0.065140000000     0.850266   
Cu27     Cu     0.011560000000     0.495740000000     0.456190000000     0.845823   
Cu28     Cu     0.518420000000     0.996900000000     0.572250000000     0.836903   
Cu29     Cu     0.794040000000     0.775460000000     0.997410000000     1.13969    
Cu30     Cu     0.730740000000     0.695740000000     0.004120000000     1.16518    
Cu31     Cu     0.807170000000     0.773290000000     0.508490000000     1.11776    
Cu32     Cu     0.723240000000     0.720150000000     0.501120000000     1.15303    
H1       H      0.314070000000     0.219410000000     0.738470000000     0.035888   
H2       H      0.261750000000     0.168090000000     0.806950000000     0.0363819  
H3       H      0.288370000000     0.306860000000     0.743510000000     0.026764   
H4       H      0.227960000000     0.306910000000     0.822440000000     0.042975   
H5       H      0.277280000000     0.179080000000     0.690840000000     0.0286204  
H6       H      0.208900000000     0.182090000000     0.766070000000     0.0361062  
H7       H      0.186910000000     0.266960000000     0.779100000000     0.0410861  
H8       H      0.246340000000     0.373660000000     0.690330000000     0.0304162  
H9       H      0.286030000000     0.305550000000     0.216170000000     0.0365255  
H10      H      0.331970000000     0.293200000000     0.309650000000     0.0382921  
H11      H      0.209620000000     0.187950000000     0.196610000000     0.0311861  
H12      H      0.204340000000     0.246110000000     0.276400000000     0.0413234  
H13      H      0.338560000000     0.281480000000     0.191200000000     0.039406   
H14      H      0.341320000000     0.236330000000     0.286270000000     0.0406189  
H15      H      0.208920000000     0.191560000000     0.312000000000     0.0467727  
H16      H      0.293010000000     0.139160000000     0.175440000000     0.036544   
H17      H      0.153680000000     0.401010000000     0.589480000000     0.0431496  
H18      H      0.237660000000     0.399120000000     0.559020000000     0.0378087  
H19      H      0.099230000000     0.349770000000     0.505610000000     0.0332032  
H20      H      0.149300000000     0.321080000000     0.423060000000     0.0458499  
H21      H      0.176700000000     0.457780000000     0.563800000000     0.0372343  
H22      H      0.228540000000     0.427220000000     0.485170000000     0.0397317  
H23      H      0.172540000000     0.378650000000     0.401670000000     0.0435583  
H24      H      0.044640000000     0.331140000000     0.404620000000     0.0269258  
H25      H      0.368440000000     0.352200000000     0.439610000000     0.0384943  
H26      H      0.456210000000     0.358770000000     0.421590000000     0.0407035  
H27      H      0.354320000000     0.365680000000     0.553500000000     0.0419938  
H28      H      0.427890000000     0.373850000000     0.620690000000     0.0395263  
H29      H      0.386590000000     0.297260000000     0.416520000000     0.0371503  
H30      H      0.461380000000     0.310280000000     0.471890000000     0.0357805  
H31      H      0.442430000000     0.318540000000     0.593530000000     0.0377552  
H32      H      0.325470000000     0.344570000000     0.661650000000     0.010565   
H33      H      0.335580000000     0.106930000000     0.611210000000     0.0338086  
H34      H      0.418750000000     0.097480000000     0.613500000000     0.0427282  
H35      H      0.299590000000     0.065390000000     0.508550000000     0.0297366  
H36      H      0.362490000000     0.039890000000     0.441840000000     0.0458133  
H37      H      0.366740000000     0.163440000000     0.603020000000     0.0384412  
H38      H      0.432530000000     0.135840000000     0.548870000000     0.0413634  
H39      H      0.390570000000     0.097750000000     0.431550000000     0.0493489  
H40      H      0.242920000000     0.088420000000     0.415670000000     0.040283   
H41      H      0.166420000000     0.138730000000     0.433790000000     0.0393189  
H42      H      0.080000000000     0.128920000000     0.408540000000     0.0412698  
H43      H      0.175310000000     0.129230000000     0.549950000000     0.039915   
H44      H      0.098330000000     0.123450000000     0.611160000000     0.0396963  
H45      H      0.148500000000     0.192420000000     0.405310000000     0.0385707  
H46      H      0.070780000000     0.179270000000     0.453440000000     0.0369212  
H47      H      0.084910000000     0.176870000000     0.577060000000     0.036618   
H48      H      0.199630000000     0.155640000000     0.659440000000     0.00869587 
H49      H      0.103730000000     0.347510000000     0.102340000000     0.0416875  
H50      H      0.190640000000     0.356350000000     0.078270000000     0.0395415  
H51      H      0.049330000000     0.303840000000     0.016110000000     0.0286635  
H52      H      0.103900000000     0.265650000000     0.957250000000     0.0459829  
H53      H      0.126690000000     0.406610000000     0.086400000000     0.0396147  
H54      H      0.179960000000     0.382150000000     0.003320000000     0.0426091  
H55      H      0.128530000000     0.316490000000     0.917010000000     0.0432129  
H56      H      0.984710000000     0.324040000000     0.932840000000     0.0384664  
H57      H      0.389300000000     0.392750000000     0.901820000000     0.0415218  
H58      H      0.323140000000     0.339950000000     0.896350000000     0.0400984  
H59      H      0.371060000000     0.415960000000     0.097050000000     0.0320429  
H60      H      0.359070000000     0.338300000000     0.087700000000     0.0478067  
H61      H      0.343690000000     0.430240000000     0.912030000000     0.0331846  
H62      H      0.286480000000     0.369990000000     0.947950000000     0.0425959  
H63      H      0.298150000000     0.348150000000     0.076710000000     0.0453709  
H64      H      0.317260000000     0.485020000000     0.051310000000     0.036922   
H65      H      0.422970000000     0.130430000000     0.090870000000     0.0418679  
H66      H      0.335530000000     0.116960000000     0.069880000000     0.039106   
H67      H      0.475700000000     0.168460000000     0.998450000000     0.0289247  
H68      H      0.418810000000     0.203460000000     0.939830000000     0.0453641  
H69      H      0.400490000000     0.070350000000     0.083180000000     0.0416431  
H70      H      0.346280000000     0.088360000000     0.996970000000     0.0401288  
H71      H      0.393620000000     0.150960000000     0.904200000000     0.0425249  
H72      H      0.537400000000     0.147530000000     0.913370000000     0.0372767  
H73      H      0.148240000000     0.070890000000     0.918010000000     0.0428302  
H74      H      0.218010000000     0.119790000000     0.918410000000     0.040997   
H75      H      0.138520000000     0.068930000000     0.116480000000     0.0340218  
H76      H      0.164910000000     0.143710000000     0.099700000000     0.0443024  
H77      H      0.189310000000     0.032970000000     0.946350000000     0.032305   
H78      H      0.243620000000     0.094080000000     0.985120000000     0.0427371  
H79      H      0.223970000000     0.126510000000     0.095140000000     0.0435399  
H80      H      0.190450000000     0.989410000000     0.093420000000     0.0384113  
H81      H      0.314070000000     0.719410000000     0.738470000000     0.0358722  
H82      H      0.261750000000     0.668100000000     0.806950000000     0.0364002  
H83      H      0.288370000000     0.806860000000     0.743510000000     0.0267556  
H84      H      0.227960000000     0.806910000000     0.822440000000     0.0429634  
H85      H      0.277280000000     0.679080000000     0.690840000000     0.0285933  
H86      H      0.208900000000     0.682100000000     0.766070000000     0.03613    
H87      H      0.186910000000     0.766960000000     0.779100000000     0.0410815  
H88      H      0.246340000000     0.873660000000     0.690330000000     0.030377   
H89      H      0.286030000000     0.805550000000     0.216170000000     0.036515   
H90      H      0.331970000000     0.793200000000     0.309650000000     0.0382767  
H91      H      0.209620000000     0.687950000000     0.196610000000     0.03117    
H92      H      0.204340000000     0.746110000000     0.276400000000     0.041315   
H93      H      0.338560000000     0.781480000000     0.191200000000     0.0394094  
H94      H      0.341320000000     0.736330000000     0.286270000000     0.0406134  
H95      H      0.208920000000     0.691550000000     0.312000000000     0.0467546  
H96      H      0.293010000000     0.639160000000     0.175440000000     0.0365319  
H97      H      0.153680000000     0.901010000000     0.589480000000     0.0431309  
H98      H      0.237660000000     0.899120000000     0.559020000000     0.0377671  
H99      H      0.099230000000     0.849770000000     0.505610000000     0.0332106  
H100     H      0.149300000000     0.821080000000     0.423060000000     0.045846   
H101     H      0.176700000000     0.957780000000     0.563800000000     0.0371353  
H102     H      0.228540000000     0.927220000000     0.485170000000     0.0396484  
H103     H      0.172540000000     0.878650000000     0.401670000000     0.0435206  
H104     H      0.044640000000     0.831140000000     0.404620000000     0.0269308  
H105     H      0.368440000000     0.852200000000     0.439610000000     0.0384627  
H106     H      0.456210000000     0.858770000000     0.421590000000     0.040691   
H107     H      0.354320000000     0.865680000000     0.553500000000     0.0419594  
H108     H      0.427890000000     0.873850000000     0.620690000000     0.0394989  
H109     H      0.386590000000     0.797260000000     0.416520000000     0.037145   
H110     H      0.461380000000     0.810280000000     0.471890000000     0.0357844  
H111     H      0.442430000000     0.818540000000     0.593530000000     0.0377557  
H112     H      0.325470000000     0.844570000000     0.661650000000     0.0105444  
H113     H      0.335580000000     0.606930000000     0.611210000000     0.0337526  
H114     H      0.418750000000     0.597480000000     0.613500000000     0.0426826  
H115     H      0.299590000000     0.565390000000     0.508550000000     0.0296507  
H116     H      0.362490000000     0.539890000000     0.441840000000     0.0457093  
H117     H      0.366740000000     0.663440000000     0.603020000000     0.0384305  
H118     H      0.432530000000     0.635840000000     0.548870000000     0.0413574  
H119     H      0.390570000000     0.597750000000     0.431550000000     0.0493243  
H120     H      0.242920000000     0.588420000000     0.415670000000     0.040228   
H121     H      0.166420000000     0.638730000000     0.433790000000     0.0392881  
H122     H      0.080000000000     0.628920000000     0.408540000000     0.041233   
H123     H      0.175310000000     0.629230000000     0.549950000000     0.0398755  
H124     H      0.098330000000     0.623450000000     0.611160000000     0.0396525  
H125     H      0.148500000000     0.692420000000     0.405310000000     0.0385659  
H126     H      0.070780000000     0.679270000000     0.453440000000     0.0369166  
H127     H      0.084910000000     0.676870000000     0.577060000000     0.0366062  
H128     H      0.199630000000     0.655640000000     0.659440000000     0.00866625 
H129     H      0.103730000000     0.847510000000     0.102340000000     0.0416811  
H130     H      0.190640000000     0.856350000000     0.078270000000     0.0395149  
H131     H      0.049330000000     0.803840000000     0.016110000000     0.0286662  
H132     H      0.103900000000     0.765650000000     0.957250000000     0.0459839  
H133     H      0.126690000000     0.906610000000     0.086400000000     0.0395654  
H134     H      0.179960000000     0.882150000000     0.003320000000     0.0425596  
H135     H      0.128530000000     0.816490000000     0.917010000000     0.0432021  
H136     H      0.984710000000     0.824040000000     0.932840000000     0.0384732  
H137     H      0.389300000000     0.892750000000     0.901820000000     0.0415015  
H138     H      0.323140000000     0.839950000000     0.896350000000     0.0400908  
H139     H      0.371060000000     0.915960000000     0.097050000000     0.0319991  
H140     H      0.359070000000     0.838300000000     0.087700000000     0.0478046  
H141     H      0.343690000000     0.930240000000     0.912030000000     0.0331109  
H142     H      0.286480000000     0.869990000000     0.947950000000     0.0425776  
H143     H      0.298150000000     0.848150000000     0.076710000000     0.0453637  
H144     H      0.317260000000     0.985020000000     0.051310000000     0.0367715  
H145     H      0.422970000000     0.630430000000     0.090870000000     0.0418563  
H146     H      0.335530000000     0.616960000000     0.069880000000     0.0390989  
H147     H      0.475700000000     0.668460000000     0.998450000000     0.0289188  
H148     H      0.418810000000     0.703460000000     0.939830000000     0.0453688  
H149     H      0.400490000000     0.570350000000     0.083180000000     0.041546   
H150     H      0.346280000000     0.588360000000     0.996970000000     0.0400706  
H151     H      0.393620000000     0.650960000000     0.904200000000     0.0425022  
H152     H      0.537400000000     0.647530000000     0.913370000000     0.037276   
H153     H      0.148240000000     0.570890000000     0.918010000000     0.0427777  
H154     H      0.218010000000     0.619790000000     0.918410000000     0.0409742  
H155     H      0.138520000000     0.568930000000     0.116480000000     0.0339451  
H156     H      0.164910000000     0.643710000000     0.099700000000     0.044305   
H157     H      0.189310000000     0.532970000000     0.946350000000     0.0321744  
H158     H      0.243620000000     0.594080000000     0.985120000000     0.042709   
H159     H      0.223970000000     0.626510000000     0.095140000000     0.0435513  
H160     H      0.190450000000     0.489410000000     0.093420000000     0.0387969  
H161     H      0.814070000000     0.219410000000     0.738470000000     0.0359157  
H162     H      0.761750000000     0.168090000000     0.806950000000     0.0363921  
H163     H      0.788370000000     0.306860000000     0.743510000000     0.0267789  
H164     H      0.727960000000     0.306910000000     0.822440000000     0.0429836  
H165     H      0.777280000000     0.179080000000     0.690840000000     0.0286276  
H166     H      0.708900000000     0.182090000000     0.766070000000     0.0361288  
H167     H      0.686910000000     0.266960000000     0.779100000000     0.041119   
H168     H      0.746340000000     0.373660000000     0.690330000000     0.030421   
H169     H      0.786030000000     0.305550000000     0.216170000000     0.0365284  
H170     H      0.831970000000     0.293200000000     0.309650000000     0.0383648  
H171     H      0.709620000000     0.187950000000     0.196610000000     0.0312001  
H172     H      0.704340000000     0.246110000000     0.276400000000     0.041343   
H173     H      0.838560000000     0.281480000000     0.191200000000     0.0394494  
H174     H      0.841320000000     0.236330000000     0.286270000000     0.040706   
H175     H      0.708920000000     0.191560000000     0.312000000000     0.046782   
H176     H      0.793010000000     0.139160000000     0.175440000000     0.036561   
H177     H      0.653680000000     0.401010000000     0.589480000000     0.043191   
H178     H      0.737660000000     0.399120000000     0.559020000000     0.0377982  
H179     H      0.599230000000     0.349770000000     0.505610000000     0.0333028  
H180     H      0.649300000000     0.321080000000     0.423060000000     0.0458718  
H181     H      0.676700000000     0.457780000000     0.563800000000     0.0372409  
H182     H      0.728540000000     0.427220000000     0.485170000000     0.0397208  
H183     H      0.672540000000     0.378650000000     0.401670000000     0.0435632  
H184     H      0.544640000000     0.331140000000     0.404620000000     0.0270948  
H185     H      0.868430000000     0.352200000000     0.439610000000     0.0385022  
H186     H      0.956210000000     0.358770000000     0.421590000000     0.0408917  
H187     H      0.854320000000     0.365680000000     0.553500000000     0.0419962  
H188     H      0.927890000000     0.373850000000     0.620690000000     0.0396205  
H189     H      0.886590000000     0.297260000000     0.416520000000     0.0371974  
H190     H      0.961380000000     0.310280000000     0.471890000000     0.0359805  
H191     H      0.942430000000     0.318540000000     0.593530000000     0.0378929  
H192     H      0.825470000000     0.344570000000     0.661650000000     0.0105745  
H193     H      0.835580000000     0.106930000000     0.611210000000     0.0338102  
H194     H      0.918750000000     0.097480000000     0.613500000000     0.0428349  
H195     H      0.799590000000     0.065390000000     0.508550000000     0.0297353  
H196     H      0.862490000000     0.039890000000     0.441840000000     0.0458476  
H197     H      0.866740000000     0.163440000000     0.603020000000     0.0384755  
H198     H      0.932530000000     0.135840000000     0.548870000000     0.0415222  
H199     H      0.890570000000     0.097750000000     0.431550000000     0.0494417  
H200     H      0.742920000000     0.088420000000     0.415670000000     0.0402769  
H201     H      0.666420000000     0.138730000000     0.433790000000     0.0393255  
H202     H      0.580010000000     0.128920000000     0.408540000000     0.0413574  
H203     H      0.675310000000     0.129230000000     0.549950000000     0.0399084  
H204     H      0.598320000000     0.123450000000     0.611160000000     0.0397713  
H205     H      0.648500000000     0.192420000000     0.405310000000     0.0386033  
H206     H      0.570780000000     0.179270000000     0.453440000000     0.0370516  
H207     H      0.584910000000     0.176870000000     0.577060000000     0.0367336  
H208     H      0.699630000000     0.155640000000     0.659440000000     0.00869974 
H209     H      0.603730000000     0.347510000000     0.102340000000     0.0417588  
H210     H      0.690640000000     0.356350000000     0.078270000000     0.0395427  
H211     H      0.549340000000     0.303840000000     0.016110000000     0.0288633  
H212     H      0.603890000000     0.265650000000     0.957250000000     0.0460357  
H213     H      0.626690000000     0.406610000000     0.086400000000     0.0396282  
H214     H      0.679960000000     0.382150000000     0.003320000000     0.0425989  
H215     H      0.628530000000     0.316490000000     0.917010000000     0.0432103  
H216     H      0.484710000000     0.324040000000     0.932840000000     0.037856   
H217     H      0.889300000000     0.392750000000     0.901820000000     0.0416058  
H218     H      0.823140000000     0.339950000000     0.896350000000     0.0401168  
H219     H      0.871060000000     0.415960000000     0.097050000000     0.0321009  
H220     H      0.859070000000     0.338300000000     0.087700000000     0.0478666  
H221     H      0.843690000000     0.430240000000     0.912030000000     0.0332077  
H222     H      0.786480000000     0.369990000000     0.947950000000     0.0425919  
H223     H      0.798150000000     0.348150000000     0.076710000000     0.0453723  
H224     H      0.817260000000     0.485020000000     0.051310000000     0.0369323  
H225     H      0.922970000000     0.130430000000     0.090870000000     0.0419759  
H226     H      0.835530000000     0.116960000000     0.069880000000     0.0391163  
H227     H      0.975700000000     0.168460000000     0.998450000000     0.0291542  
H228     H      0.918810000000     0.203460000000     0.939830000000     0.0454288  
H229     H      0.900490000000     0.070350000000     0.083180000000     0.041697   
H230     H      0.846280000000     0.088360000000     0.996970000000     0.0401272  
H231     H      0.893620000000     0.150960000000     0.904200000000     0.042523   
H232     H      0.037400000000     0.147530000000     0.913370000000     0.0366845  
H233     H      0.648240000000     0.070890000000     0.918010000000     0.0428721  
H234     H      0.718010000000     0.119790000000     0.918410000000     0.0410055  
H235     H      0.638520000000     0.068930000000     0.116480000000     0.0340663  
H236     H      0.664910000000     0.143710000000     0.099700000000     0.0443455  
H237     H      0.689310000000     0.032970000000     0.946350000000     0.0323047  
H238     H      0.743620000000     0.094080000000     0.985120000000     0.0427343  
H239     H      0.723970000000     0.126510000000     0.095140000000     0.0435413  
H240     H      0.690450000000     0.989410000000     0.093420000000     0.038407   
H241     H      0.814070000000     0.719410000000     0.738470000000     0.0358986  
H242     H      0.761750000000     0.668100000000     0.806950000000     0.0364113  
H243     H      0.788370000000     0.806860000000     0.743510000000     0.0267701  
H244     H      0.727960000000     0.806910000000     0.822440000000     0.0429716  
H245     H      0.777280000000     0.679080000000     0.690840000000     0.0285976  
H246     H      0.708900000000     0.682100000000     0.766070000000     0.0361525  
H247     H      0.686910000000     0.766960000000     0.779100000000     0.0411142  
H248     H      0.746340000000     0.873660000000     0.690330000000     0.0303815  
H249     H      0.786030000000     0.805550000000     0.216170000000     0.0365298  
H250     H      0.831970000000     0.793200000000     0.309650000000     0.0383154  
H251     H      0.709620000000     0.687950000000     0.196610000000     0.0311906  
H252     H      0.704340000000     0.746110000000     0.276400000000     0.0413385  
H253     H      0.838560000000     0.781480000000     0.191200000000     0.0394608  
H254     H      0.841320000000     0.736330000000     0.286270000000     0.0406678  
H255     H      0.708920000000     0.691550000000     0.312000000000     0.046769   
H256     H      0.793010000000     0.639160000000     0.175440000000     0.0365441  
H257     H      0.653680000000     0.901010000000     0.589480000000     0.0431686  
H258     H      0.737660000000     0.899120000000     0.559020000000     0.037771   
H259     H      0.599230000000     0.849770000000     0.505610000000     0.0333102  
H260     H      0.649300000000     0.821080000000     0.423060000000     0.0458559  
H261     H      0.676700000000     0.957780000000     0.563800000000     0.0371378  
H262     H      0.728540000000     0.927220000000     0.485170000000     0.0396499  
H263     H      0.672540000000     0.878650000000     0.401670000000     0.0435156  
H264     H      0.544640000000     0.831140000000     0.404620000000     0.0270971  
H265     H      0.868440000000     0.852200000000     0.439610000000     0.038476   
H266     H      0.956210000000     0.858770000000     0.421590000000     0.0408769  
H267     H      0.854320000000     0.865680000000     0.553500000000     0.0419544  
H268     H      0.927890000000     0.873850000000     0.620690000000     0.039596   
H269     H      0.886590000000     0.797260000000     0.416520000000     0.0371978  
H270     H      0.961380000000     0.810280000000     0.471890000000     0.0359865  
H271     H      0.942430000000     0.818540000000     0.593530000000     0.0379024  
H272     H      0.825470000000     0.844570000000     0.661650000000     0.0105668  
H273     H      0.835580000000     0.606930000000     0.611210000000     0.033765   
H274     H      0.918740000000     0.597480000000     0.613500000000     0.0427911  
H275     H      0.799590000000     0.565390000000     0.508550000000     0.0296477  
H276     H      0.862490000000     0.539890000000     0.441840000000     0.0457484  
H277     H      0.866740000000     0.663440000000     0.603020000000     0.0384696  
H278     H      0.932530000000     0.635840000000     0.548870000000     0.0415167  
H279     H      0.890570000000     0.597750000000     0.431550000000     0.0494187  
H280     H      0.742920000000     0.588420000000     0.415670000000     0.0402245  
H281     H      0.666420000000     0.638730000000     0.433790000000     0.0392866  
H282     H      0.580010000000     0.628920000000     0.408540000000     0.0413221  
H283     H      0.675310000000     0.629230000000     0.549950000000     0.0398705  
H284     H      0.598330000000     0.623450000000     0.611160000000     0.039725   
H285     H      0.648500000000     0.692420000000     0.405310000000     0.038591   
H286     H      0.570780000000     0.679270000000     0.453440000000     0.0370481  
H287     H      0.584910000000     0.676870000000     0.577060000000     0.036722   
H288     H      0.699630000000     0.655640000000     0.659440000000     0.00866872 
H289     H      0.603730000000     0.847510000000     0.102340000000     0.0417483  
H290     H      0.690640000000     0.856350000000     0.078270000000     0.0395331  
H291     H      0.549330000000     0.803840000000     0.016110000000     0.0288652  
H292     H      0.603890000000     0.765650000000     0.957250000000     0.046033   
H293     H      0.626690000000     0.906610000000     0.086400000000     0.0395678  
H294     H      0.679960000000     0.882150000000     0.003320000000     0.0425638  
H295     H      0.628530000000     0.816490000000     0.917010000000     0.0431937  
H296     H      0.484710000000     0.824040000000     0.932840000000     0.0378637  
H297     H      0.889300000000     0.892750000000     0.901820000000     0.0415831  
H298     H      0.823140000000     0.839950000000     0.896350000000     0.04011    
H299     H      0.871060000000     0.915960000000     0.097050000000     0.0320567  
H300     H      0.859070000000     0.838300000000     0.087700000000     0.0478645  
H301     H      0.843680000000     0.930240000000     0.912030000000     0.0331277  
H302     H      0.786480000000     0.869990000000     0.947950000000     0.0425734  
H303     H      0.798150000000     0.848150000000     0.076710000000     0.0453667  
H304     H      0.817260000000     0.985020000000     0.051310000000     0.0367824  
H305     H      0.922970000000     0.630430000000     0.090870000000     0.0419544  
H306     H      0.835530000000     0.616960000000     0.069880000000     0.0391109  
H307     H      0.975700000000     0.668460000000     0.998450000000     0.0291478  
H308     H      0.918810000000     0.703460000000     0.939830000000     0.0454358  
H309     H      0.900490000000     0.570350000000     0.083180000000     0.0415895  
H310     H      0.846280000000     0.588360000000     0.996970000000     0.0400738  
H311     H      0.893620000000     0.650960000000     0.904200000000     0.0425028  
H312     H      0.037400000000     0.647530000000     0.913370000000     0.0366839  
H313     H      0.648240000000     0.570890000000     0.918010000000     0.0428223  
H314     H      0.718010000000     0.619790000000     0.918410000000     0.0409822  
H315     H      0.638520000000     0.568930000000     0.116480000000     0.033989   
H316     H      0.664910000000     0.643710000000     0.099700000000     0.0443469  
H317     H      0.689300000000     0.532970000000     0.946350000000     0.0321819  
H318     H      0.743620000000     0.594080000000     0.985120000000     0.0427076  
H319     H      0.723970000000     0.626510000000     0.095140000000     0.043553   
H320     H      0.690450000000     0.489410000000     0.093420000000     0.0387965  
N1       N      0.259110000000     0.248660000000     0.690410000000    -0.181994   
N2       N      0.243750000000     0.236770000000     0.819990000000    -0.180171   
N3       N      0.272520000000     0.236820000000     0.184390000000    -0.185304   
N4       N      0.271370000000     0.241930000000     0.320050000000    -0.176525   
N5       N      0.126630000000     0.420070000000     0.501130000000    -0.165108   
N6       N      0.197920000000     0.357770000000     0.489140000000    -0.173001   
N7       N      0.368860000000     0.302690000000     0.512980000000    -0.22629    
N8       N      0.446480000000     0.369390000000     0.521950000000    -0.171371   
N9       N      0.330480000000     0.134550000000     0.520070000000    -0.177597   
N10      N      0.400610000000     0.069920000000     0.521690000000    -0.160215   
N11      N      0.161720000000     0.190360000000     0.503400000000    -0.229721   
N12      N      0.084510000000     0.122980000000     0.510250000000    -0.171672   
N13      N      0.082550000000     0.372120000000     0.013800000000    -0.166859   
N14      N      0.155260000000     0.311030000000     0.008850000000    -0.172739   
N15      N      0.380690000000     0.416610000000     0.995960000000    -0.174104   
N16      N      0.335620000000     0.330770000000     0.993880000000    -0.216313   
N17      N      0.442950000000     0.100180000000     0.005330000000    -0.166439   
N18      N      0.369010000000     0.160020000000     0.996220000000    -0.174003   
N19      N      0.143630000000     0.055650000000     0.016730000000    -0.173817   
N20      N      0.191300000000     0.139170000000     0.007520000000    -0.218767   
N21      N      0.259110000000     0.748660000000     0.690410000000    -0.181998   
N22      N      0.243750000000     0.736770000000     0.819990000000    -0.180154   
N23      N      0.272520000000     0.736810000000     0.184390000000    -0.185305   
N24      N      0.271370000000     0.741930000000     0.320050000000    -0.17653    
N25      N      0.126630000000     0.920070000000     0.501130000000    -0.165117   
N26      N      0.197920000000     0.857770000000     0.489140000000    -0.173008   
N27      N      0.368860000000     0.802690000000     0.512980000000    -0.226292   
N28      N      0.446480000000     0.869390000000     0.521950000000    -0.171365   
N29      N      0.330490000000     0.634550000000     0.520070000000    -0.177571   
N30      N      0.400610000000     0.569920000000     0.521690000000    -0.16029    
N31      N      0.161720000000     0.690360000000     0.503400000000    -0.229719   
N32      N      0.084510000000     0.622980000000     0.510250000000    -0.171715   
N33      N      0.082550000000     0.872120000000     0.013800000000    -0.166859   
N34      N      0.155260000000     0.811030000000     0.008850000000    -0.17272    
N35      N      0.380690000000     0.916610000000     0.995960000000    -0.174111   
N36      N      0.335620000000     0.830770000000     0.993880000000    -0.216308   
N37      N      0.442960000000     0.600190000000     0.005330000000    -0.166476   
N38      N      0.369010000000     0.660020000000     0.996220000000    -0.173995   
N39      N      0.143630000000     0.555660000000     0.016730000000    -0.173861   
N40      N      0.191300000000     0.639170000000     0.007520000000    -0.218762   
N41      N      0.759110000000     0.248660000000     0.690410000000    -0.181991   
N42      N      0.743750000000     0.236770000000     0.819990000000    -0.180165   
N43      N      0.772520000000     0.236820000000     0.184390000000    -0.185308   
N44      N      0.771360000000     0.241930000000     0.320050000000    -0.176508   
N45      N      0.626630000000     0.420070000000     0.501130000000    -0.165102   
N46      N      0.697920000000     0.357770000000     0.489140000000    -0.173006   
N47      N      0.868860000000     0.302690000000     0.512980000000    -0.226284   
N48      N      0.946480000000     0.369390000000     0.521950000000    -0.171271   
N49      N      0.830490000000     0.134550000000     0.520070000000    -0.177558   
N50      N      0.900610000000     0.069920000000     0.521690000000    -0.160155   
N51      N      0.661720000000     0.190360000000     0.503400000000    -0.229709   
N52      N      0.584510000000     0.122980000000     0.510250000000    -0.171646   
N53      N      0.582550000000     0.372120000000     0.013800000000    -0.166835   
N54      N      0.655270000000     0.311030000000     0.008850000000    -0.172785   
N55      N      0.880690000000     0.416610000000     0.995960000000    -0.17405    
N56      N      0.835620000000     0.330770000000     0.993880000000    -0.216292   
N57      N      0.942950000000     0.100180000000     0.005330000000    -0.166357   
N58      N      0.869010000000     0.160020000000     0.996220000000    -0.174      
N59      N      0.643630000000     0.055650000000     0.016730000000    -0.173821   
N60      N      0.691300000000     0.139170000000     0.007520000000    -0.218752   
N61      N      0.759110000000     0.748660000000     0.690410000000    -0.182019   
N62      N      0.743750000000     0.736770000000     0.819990000000    -0.180148   
N63      N      0.772520000000     0.736810000000     0.184390000000    -0.185299   
N64      N      0.771370000000     0.741930000000     0.320050000000    -0.176526   
N65      N      0.626630000000     0.920070000000     0.501130000000    -0.165114   
N66      N      0.697920000000     0.857770000000     0.489140000000    -0.17301    
N67      N      0.868860000000     0.802690000000     0.512980000000    -0.226286   
N68      N      0.946490000000     0.869390000000     0.521950000000    -0.171294   
N69      N      0.830480000000     0.634550000000     0.520070000000    -0.177602   
N70      N      0.900610000000     0.569920000000     0.521690000000    -0.160225   
N71      N      0.661720000000     0.690360000000     0.503400000000    -0.229713   
N72      N      0.584510000000     0.622980000000     0.510250000000    -0.171687   
N73      N      0.582550000000     0.872120000000     0.013800000000    -0.166836   
N74      N      0.655260000000     0.811030000000     0.008850000000    -0.172711   
N75      N      0.880690000000     0.916610000000     0.995960000000    -0.174058   
N76      N      0.835620000000     0.830770000000     0.993880000000    -0.216286   
N77      N      0.942960000000     0.600190000000     0.005330000000    -0.166399   
N78      N      0.869010000000     0.660020000000     0.996220000000    -0.173968   
N79      N      0.643630000000     0.555660000000     0.016730000000    -0.173864   
N80      N      0.691300000000     0.639170000000     0.007520000000    -0.218754   
O1       O      0.044400000000     0.424940000000     0.957070000000    -0.382139   
O2       O      0.484710000000     0.047230000000     0.953230000000    -0.381428   
O3       O      0.080720000000     0.020510000000     0.959870000000    -0.404804   
O4       O      0.448570000000     0.451390000000     0.949000000000    -0.404768   
O5       O      0.445430000000     0.447450000000     0.053990000000    -0.405497   
O6       O      0.074530000000     0.023650000000     0.064580000000    -0.404751   
O7       O      0.475880000000     0.042690000000     0.057420000000    -0.396271   
O8       O      0.044750000000     0.428110000000     0.062080000000    -0.395502   
O9       O      0.072730000000     0.464010000000     0.455980000000    -0.387113   
O10      O      0.449910000000     0.026280000000     0.466690000000    -0.38986    
O11      O      0.049220000000     0.058980000000     0.459030000000    -0.404908   
O12      O      0.475170000000     0.432960000000     0.465670000000    -0.407079   
O13      O      0.477570000000     0.435600000000     0.570770000000    -0.406811   
O14      O      0.058200000000     0.057570000000     0.563460000000    -0.410305   
O15      O      0.458730000000     0.032240000000     0.570940000000    -0.38518    
O16      O      0.078340000000     0.462530000000     0.560770000000    -0.384602   
O17      O      0.269250000000     0.272250000000     0.911590000000    -0.476802   
O18      O      0.298350000000     0.263100000000     0.087220000000    -0.473903   
O19      O      0.339910000000     0.230110000000     0.979220000000    -0.451123   
O20      O      0.234600000000     0.300950000000     0.017200000000    -0.46239    
O21      O      0.182950000000     0.240170000000     0.995690000000    -0.451791   
O22      O      0.291300000000     0.171430000000     0.014920000000    -0.477705   
O23      O      0.235810000000     0.210750000000     0.092920000000    -0.479476   
O24      O      0.241560000000     0.199180000000     0.913870000000    -0.482399   
O25      O      0.302590000000     0.266040000000     0.416370000000    -0.473144   
O26      O      0.294120000000     0.276000000000     0.596990000000    -0.476671   
O27      O      0.327770000000     0.212440000000     0.524890000000    -0.457313   
O28      O      0.268040000000     0.325350000000     0.507420000000    -0.447647   
O29      O      0.201100000000     0.280200000000     0.490110000000    -0.467009   
O30      O      0.262200000000     0.168660000000     0.496940000000    -0.453903   
O31      O      0.230510000000     0.223160000000     0.592960000000    -0.483977   
O32      O      0.233980000000     0.221920000000     0.412680000000    -0.480818   
O33      O      0.044400000000     0.924940000000     0.957070000000    -0.382097   
O34      O      0.484710000000     0.547230000000     0.953230000000    -0.381765   
O35      O      0.080720000000     0.520510000000     0.959870000000    -0.405178   
O36      O      0.448570000000     0.951390000000     0.949000000000    -0.404733   
O37      O      0.445430000000     0.947450000000     0.053990000000    -0.405454   
O38      O      0.074530000000     0.523650000000     0.064580000000    -0.40512    
O39      O      0.475880000000     0.542690000000     0.057420000000    -0.396618   
O40      O      0.044750000000     0.928110000000     0.062080000000    -0.395457   
O41      O      0.072730000000     0.964010000000     0.455980000000    -0.387094   
O42      O      0.449910000000     0.526280000000     0.466690000000    -0.390198   
O43      O      0.049220000000     0.558980000000     0.459030000000    -0.405283   
O44      O      0.475170000000     0.932960000000     0.465670000000    -0.407024   
O45      O      0.477570000000     0.935600000000     0.570770000000    -0.406749   
O46      O      0.058200000000     0.557580000000     0.563460000000    -0.410664   
O47      O      0.458730000000     0.532240000000     0.570940000000    -0.385547   
O48      O      0.078340000000     0.962530000000     0.560770000000    -0.38458    
O49      O      0.269250000000     0.772250000000     0.911590000000    -0.476801   
O50      O      0.298350000000     0.763100000000     0.087220000000    -0.473903   
O51      O      0.339910000000     0.730110000000     0.979220000000    -0.451119   
O52      O      0.234600000000     0.800950000000     0.017200000000    -0.462347   
O53      O      0.182950000000     0.740160000000     0.995690000000    -0.451731   
O54      O      0.291300000000     0.671430000000     0.014920000000    -0.477715   
O55      O      0.235810000000     0.710750000000     0.092920000000    -0.47948    
O56      O      0.241560000000     0.699180000000     0.913870000000    -0.482409   
O57      O      0.302590000000     0.766040000000     0.416370000000    -0.473147   
O58      O      0.294120000000     0.776000000000     0.596990000000    -0.47667    
O59      O      0.327770000000     0.712440000000     0.524890000000    -0.457296   
O60      O      0.268040000000     0.825350000000     0.507420000000    -0.44766    
O61      O      0.201100000000     0.780200000000     0.490110000000    -0.467007   
O62      O      0.262200000000     0.668660000000     0.496940000000    -0.453901   
O63      O      0.230510000000     0.723160000000     0.592960000000    -0.483976   
O64      O      0.233980000000     0.721920000000     0.412680000000    -0.480818   
O65      O      0.544400000000     0.424940000000     0.957070000000    -0.382187   
O66      O      0.984710000000     0.047230000000     0.953230000000    -0.380878   
O67      O      0.580720000000     0.020510000000     0.959870000000    -0.404894   
O68      O      0.948570000000     0.451390000000     0.949000000000    -0.404219   
O69      O      0.945430000000     0.447450000000     0.053990000000    -0.40494    
O70      O      0.574530000000     0.023650000000     0.064580000000    -0.404834   
O71      O      0.975880000000     0.042690000000     0.057420000000    -0.395688   
O72      O      0.544750000000     0.428110000000     0.062080000000    -0.395547   
O73      O      0.572730000000     0.464010000000     0.455980000000    -0.387202   
O74      O      0.949910000000     0.026280000000     0.466690000000    -0.389334   
O75      O      0.549220000000     0.058980000000     0.459030000000    -0.404963   
O76      O      0.975170000000     0.432960000000     0.465670000000    -0.406478   
O77      O      0.977570000000     0.435600000000     0.570770000000    -0.406226   
O78      O      0.558200000000     0.057570000000     0.563460000000    -0.410404   
O79      O      0.958730000000     0.032240000000     0.570940000000    -0.384687   
O80      O      0.578340000000     0.462530000000     0.560770000000    -0.384658   
O81      O      0.769250000000     0.272250000000     0.911590000000    -0.476799   
O82      O      0.798350000000     0.263100000000     0.087220000000    -0.47384    
O83      O      0.839910000000     0.230110000000     0.979220000000    -0.451089   
O84      O      0.734600000000     0.300950000000     0.017200000000    -0.462413   
O85      O      0.682950000000     0.240170000000     0.995690000000    -0.451784   
O86      O      0.791300000000     0.171430000000     0.014920000000    -0.477708   
O87      O      0.735810000000     0.210750000000     0.092920000000    -0.479533   
O88      O      0.741560000000     0.199180000000     0.913870000000    -0.482398   
O89      O      0.802590000000     0.266040000000     0.416370000000    -0.473135   
O90      O      0.794120000000     0.276000000000     0.596990000000    -0.476681   
O91      O      0.827770000000     0.212440000000     0.524890000000    -0.457273   
O92      O      0.768040000000     0.325350000000     0.507420000000    -0.44765    
O93      O      0.701100000000     0.280200000000     0.490110000000    -0.466994   
O94      O      0.762200000000     0.168660000000     0.496940000000    -0.453898   
O95      O      0.730510000000     0.223160000000     0.592960000000    -0.483985   
O96      O      0.733980000000     0.221920000000     0.412680000000    -0.480814   
O97      O      0.544400000000     0.924940000000     0.957070000000    -0.382134   
O98      O      0.984710000000     0.547230000000     0.953230000000    -0.381216   
O99      O      0.580720000000     0.520510000000     0.959870000000    -0.405266   
O100     O      0.948570000000     0.951390000000     0.949000000000    -0.404185   
O101     O      0.945430000000     0.947450000000     0.053990000000    -0.404897   
O102     O      0.574530000000     0.523650000000     0.064580000000    -0.405193   
O103     O      0.975880000000     0.542690000000     0.057420000000    -0.396043   
O104     O      0.544740000000     0.928110000000     0.062080000000    -0.395512   
O105     O      0.572730000000     0.964010000000     0.455980000000    -0.387194   
O106     O      0.949910000000     0.526280000000     0.466690000000    -0.389662   
O107     O      0.549220000000     0.558980000000     0.459030000000    -0.405333   
O108     O      0.975170000000     0.932960000000     0.465670000000    -0.406418   
O109     O      0.977570000000     0.935600000000     0.570770000000    -0.406177   
O110     O      0.558200000000     0.557580000000     0.563460000000    -0.410731   
O111     O      0.958730000000     0.532240000000     0.570940000000    -0.385003   
O112     O      0.578340000000     0.962530000000     0.560770000000    -0.38469    
O113     O      0.769250000000     0.772250000000     0.911590000000    -0.4768     
O114     O      0.798350000000     0.763100000000     0.087220000000    -0.473887   
O115     O      0.839910000000     0.730110000000     0.979220000000    -0.451046   
O116     O      0.734600000000     0.800950000000     0.017200000000    -0.462351   
O117     O      0.682950000000     0.740160000000     0.995690000000    -0.451718   
O118     O      0.791290000000     0.671430000000     0.014920000000    -0.477697   
O119     O      0.735810000000     0.710750000000     0.092920000000    -0.479484   
O120     O      0.741560000000     0.699180000000     0.913870000000    -0.482415   
O121     O      0.802590000000     0.766040000000     0.416370000000    -0.473138   
O122     O      0.794110000000     0.776000000000     0.596990000000    -0.47673    
O123     O      0.827770000000     0.712440000000     0.524890000000    -0.457291   
O124     O      0.768040000000     0.825350000000     0.507420000000    -0.447657   
O125     O      0.701100000000     0.780200000000     0.490110000000    -0.466993   
O126     O      0.762200000000     0.668660000000     0.496940000000    -0.453919   
O127     O      0.730510000000     0.723160000000     0.592960000000    -0.484015   
O128     O      0.733980000000     0.721920000000     0.412680000000    -0.480819   
S1       S      0.221330000000     0.330590000000     0.686530000000    -0.0484271  
S2       S      0.276530000000     0.152910000000     0.232420000000    -0.0399678  
S3       S      0.070170000000     0.374000000000     0.407870000000    -0.028972   
S4       S      0.340390000000     0.307670000000     0.630950000000     0.0864161  
S5       S      0.291300000000     0.100850000000     0.408250000000    -0.0343076  
S6       S      0.184050000000     0.190080000000     0.624090000000     0.0838534  
S7       S      0.031890000000     0.329760000000     0.914200000000    -0.036871   
S8       S      0.301020000000     0.438960000000     0.051470000000    -0.054396   
S9       S      0.489710000000     0.136990000000     0.898780000000    -0.0346847  
S10      S      0.209490000000     0.034560000000     0.099220000000    -0.0541385  
S11      S      0.221330000000     0.830590000000     0.686530000000    -0.0484462  
S12      S      0.276530000000     0.652920000000     0.232420000000    -0.0400156  
S13      S      0.070170000000     0.874000000000     0.407870000000    -0.0290094  
S14      S      0.340390000000     0.807670000000     0.630950000000     0.0864109  
S15      S      0.291300000000     0.600850000000     0.408250000000    -0.0343992  
S16      S      0.184050000000     0.690080000000     0.624090000000     0.0838468  
S17      S      0.031890000000     0.829760000000     0.914200000000    -0.0368924  
S18      S      0.301020000000     0.938960000000     0.051470000000    -0.0545375  
S19      S      0.489710000000     0.636990000000     0.898780000000    -0.0347684  
S20      S      0.209490000000     0.534560000000     0.099220000000    -0.0547537  
S21      S      0.721330000000     0.330590000000     0.686530000000    -0.0483847  
S22      S      0.776530000000     0.152910000000     0.232420000000    -0.0399363  
S23      S      0.570170000000     0.374000000000     0.407870000000    -0.0286808  
S24      S      0.840390000000     0.307670000000     0.630950000000     0.0864706  
S25      S      0.791300000000     0.100850000000     0.408250000000    -0.0342664  
S26      S      0.684050000000     0.190080000000     0.624090000000     0.0839017  
S27      S      0.531890000000     0.329760000000     0.914200000000    -0.0359415  
S28      S      0.801020000000     0.438960000000     0.051470000000    -0.0543848  
S29      S      0.989710000000     0.136990000000     0.898780000000    -0.033706   
S30      S      0.709500000000     0.034560000000     0.099220000000    -0.054122   
S31      S      0.721330000000     0.830590000000     0.686530000000    -0.0484017  
S32      S      0.776530000000     0.652920000000     0.232420000000    -0.0399711  
S33      S      0.570180000000     0.874000000000     0.407870000000    -0.0287201  
S34      S      0.840390000000     0.807670000000     0.630950000000     0.0864076  
S35      S      0.791300000000     0.600850000000     0.408250000000    -0.0343613  
S36      S      0.684050000000     0.690080000000     0.624090000000     0.083901   
S37      S      0.531890000000     0.829760000000     0.914200000000    -0.0359641  
S38      S      0.801020000000     0.938960000000     0.051470000000    -0.0545272  
S39      S      0.989710000000     0.636990000000     0.898780000000    -0.0337894  
S40      S      0.709490000000     0.534560000000     0.099220000000    -0.0547426  


