data_structure

_audit_creation_method RASPA-1.0
_audit_creation_date 2023-6-5
_audit_author_name 'Poobodin Mano'

_cell_length_a    35.0163
_cell_length_b    35.2202
_cell_length_c    20.5632
_cell_angle_alpha 89.98
_cell_angle_beta  90.0201
_cell_angle_gamma 119.984
_cell_volume      21966.1

_symmetry_cell_setting          triclinic
_symmetry_space_group_name_Hall 'P 1'
_symmetry_space_group_name_H-M  'P 1'
_symmetry_Int_Tables_number     1

_symmetry_equiv_pos_as_xyz 'x,y,z'

loop_
_atom_site_label
_atom_site_type_symbol
_atom_site_fract_x
_atom_site_fract_y
_atom_site_fract_z
_atom_site_charge
C1       C      0.776770000000     0.631590000000     0.574120000000     0.400593   
C2       C      0.943550000000     0.706190000000     0.654130000000     0.425059   
C3       C      0.884330000000     0.672890000000     0.490250000000     0.404937   
C4       C      0.835730000000     0.664680000000     0.737360000000     0.399743   
C5       C      0.077700000000     0.772020000000     0.820290000000     0.399671   
C6       C      0.240870000000     0.866220000000     0.913560000000     0.400201   
C7       C      0.186450000000     0.846020000000     0.746700000000     0.419387   
C8       C      0.130860000000     0.790880000000     0.987780000000     0.424705   
C9       C      0.417640000000     0.963330000000     0.960280000000     0.425361   
C10      C      0.586490000000     0.050530000000     0.032960000000     0.402485   
C11      C      0.525520000000     0.005270000000     0.875580000000     0.431817   
C12      C      0.476250000000     0.007890000000     0.120110000000     0.429396   
C13      C      0.260050000000     0.374190000000     0.376400000000     0.400317   
C14      C      0.099790000000     0.306490000000     0.272160000000     0.423662   
C15      C      0.150140000000     0.339940000000     0.443520000000     0.417176   
C16      C      0.212020000000     0.340800000000     0.206430000000     0.425119   
C17      C      0.757050000000     0.140800000000     0.128000000000     0.422946   
C18      C      0.925010000000     0.226620000000     0.205360000000     0.399997   
C19      C      0.867290000000     0.209330000000     0.042920000000     0.426501   
C20      C      0.816840000000     0.160240000000     0.288230000000     0.397495   
C21      C      0.600120000000     0.546340000000     0.527790000000     0.42453    
C22      C      0.434300000000     0.457830000000     0.443040000000     0.429147   
C23      C      0.491050000000     0.480140000000     0.607280000000     0.432147   
C24      C      0.542690000000     0.524920000000     0.362380000000     0.420766   
C25      C      0.129890000000     0.380070000000     0.866980000000     0.399009   
C26      C      0.217770000000     0.300840000000     0.788660000000     0.397995   
C27      C      0.196900000000     0.339200000000     0.949580000000     0.397717   
C28      C      0.148340000000     0.342380000000     0.704950000000     0.398186   
C29      C      0.302190000000     0.216380000000     0.690330000000     0.423189   
C30      C      0.385180000000     0.129140000000     0.627370000000     0.398208   
C31      C      0.345400000000     0.154030000000     0.785700000000     0.422961   
C32      C      0.342850000000     0.190190000000     0.535130000000     0.402367   
C33      C      0.043090000000     0.470230000000     0.908310000000     0.424497   
C34      C      0.961090000000     0.554830000000     0.987850000000     0.424129   
C35      C      0.002870000000     0.539900000000     0.827550000000     0.425922   
C36      C      0.001660000000     0.487460000000     0.071040000000     0.397418   
C37      C      0.632930000000     0.869170000000     0.375640000000     0.427204   
C38      C      0.698280000000     0.772700000000     0.281310000000     0.403647   
C39      C      0.667310000000     0.792760000000     0.447850000000     0.429199   
C40      C      0.663060000000     0.846440000000     0.207270000000     0.428659   
C41      C      0.771350000000     0.699190000000     0.141170000000     0.431604   
C42      C      0.873870000000     0.630820000000     0.094090000000     0.405538   
C43      C      0.841850000000     0.667810000000     0.242770000000     0.42942    
C44      C      0.803590000000     0.662230000000     0.991180000000     0.432587   
C45      C      0.555590000000     0.964530000000     0.449380000000     0.399945   
C46      C      0.473610000000     0.043460000000     0.551970000000     0.42288    
C47      C      0.489020000000     0.008960000000     0.380140000000     0.39829    
C48      C      0.542160000000     0.999420000000     0.619490000000     0.40023    
C49      C      0.309020000000     0.082410000000     0.204060000000     0.424393   
C50      C      0.386280000000     0.246140000000     0.114120000000     0.424319   
C51      C      0.346090000000     0.194610000000     0.276440000000     0.42725    
C52      C      0.348200000000     0.134680000000     0.039910000000     0.401882   
C53      C      0.469040000000     0.415570000000     0.019720000000     0.399986   
C54      C      0.554090000000     0.582920000000     0.946430000000     0.401612   
C55      C      0.542190000000     0.526480000000     0.102820000000     0.404311   
C56      C      0.481870000000     0.471710000000     0.863960000000     0.400884   
C57      C      0.227940000000     0.925160000000     0.329860000000     0.399006   
C58      C      0.132950000000     0.756470000000     0.395860000000     0.423434   
C59      C      0.159400000000     0.819380000000     0.239190000000     0.400338   
C60      C      0.202480000000     0.863500000000     0.487130000000     0.4        
C61      C      0.041570000000     0.579350000000     0.406440000000     0.398604   
C62      C      0.960070000000     0.415590000000     0.496990000000     0.42227    
C63      C      0.997720000000     0.467570000000     0.328700000000     0.427853   
C64      C      0.003640000000     0.524680000000     0.570400000000     0.398251   
C65      C      0.780810000000     0.092330000000     0.716230000000     0.401289   
C66      C      0.871430000000     0.249650000000     0.606220000000     0.399072   
C67      C      0.854660000000     0.201660000000     0.781100000000     0.395282   
C68      C      0.795910000000     0.138590000000     0.543550000000     0.423857   
C69      C      0.631170000000     0.753400000000     0.857720000000     0.42348    
C70      C      0.697680000000     0.920050000000     0.786260000000     0.426819   
C71      C      0.664710000000     0.860700000000     0.947060000000     0.401392   
C72      C      0.664980000000     0.815260000000     0.700250000000     0.401169   
C73      C      0.784160000000     0.032150000000     0.771880000000    -0.0163565  
C74      C      0.712610000000     0.031640000000     0.765850000000    -0.0998047  
C75      C      0.762640000000     0.986140000000     0.744740000000    -0.0060456  
C76      C      0.688910000000     0.982700000000     0.746670000000     0.319612   
C77      C      0.937730000000     0.305120000000     0.546780000000    -0.0178451  
C78      C      0.867650000000     0.307900000000     0.545250000000    -0.107232   
C79      C      0.964370000000     0.355350000000     0.551950000000    -0.00737232 
C80      C      0.893600000000     0.357420000000     0.553470000000     0.326322   
C81      C      0.110910000000     0.647010000000     0.377650000000    -0.0181233  
C82      C      0.039320000000     0.646730000000     0.376210000000    -0.102232   
C83      C      0.130680000000     0.686860000000     0.422310000000    -0.00630903 
C84      C      0.060000000000     0.688630000000     0.418040000000     0.321291   
C85      C      0.552800000000     0.651840000000     0.934140000000    -0.0176544  
C86      C      0.624370000000     0.651940000000     0.925220000000    -0.102434   
C87      C      0.565010000000     0.681440000000     0.875050000000    -0.00597006 
C88      C      0.639260000000     0.686910000000     0.871310000000     0.321045   
C89      C      0.230580000000     0.995180000000     0.304850000000    -0.0182124  
C90      C      0.299910000000     0.991090000000     0.302590000000    -0.102891   
C91      C      0.240770000000     0.015670000000     0.237280000000    -0.00625214 
C92      C      0.312350000000     0.015350000000     0.237060000000     0.322093   
C93      C      0.397810000000     0.347260000000     0.038710000000    -0.0167832  
C94      C      0.468040000000     0.345300000000     0.028950000000    -0.10439    
C95      C      0.382570000000     0.313280000000     0.093620000000    -0.00884909 
C96      C      0.455360000000     0.314800000000     0.087270000000     0.323365   
C97      C      0.624700000000     0.784050000000     0.597960000000    -0.0178387  
C98      C      0.708860000000     0.824830000000     0.601770000000    -0.10859    
C99      C      0.626620000000     0.753710000000     0.546370000000    -0.00663189 
C100     C      0.708150000000     0.794340000000     0.548430000000     0.328268   
C101     C      0.706510000000     0.900430000000     0.045600000000    -0.0155471  
C102     C      0.624910000000     0.863430000000     0.045030000000    -0.101478   
C103     C      0.706300000000     0.877220000000     0.108490000000    -0.00628503 
C104     C      0.621810000000     0.836810000000     0.105660000000     0.322224   
C105     C      0.763550000000     0.772470000000     0.237400000000    -0.0178177  
C106     C      0.690090000000     0.702410000000     0.239710000000    -0.106086   
C107     C      0.767410000000     0.765450000000     0.165410000000    -0.00523955 
C108     C      0.698370000000     0.693120000000     0.169370000000     0.324232   
C109     C      0.548500000000     0.897930000000     0.398000000000    -0.0188971  
C110     C      0.621940000000     0.966940000000     0.401360000000    -0.101777   
C111     C      0.569390000000     0.871740000000     0.422130000000    -0.00401952 
C112     C      0.643850000000     0.940100000000     0.421040000000     0.322199   
C113     C      0.960530000000     0.514690000000     0.668950000000    -0.0209804  
C114     C      0.044860000000     0.555140000000     0.671650000000    -0.10443    
C115     C      0.961540000000     0.539990000000     0.729940000000    -0.00312894 
C116     C      0.043210000000     0.582030000000     0.728810000000     0.325935   
C117     C      0.040720000000     0.496830000000     0.174390000000    -0.0195997  
C118     C      0.956630000000     0.454230000000     0.168440000000    -0.108656   
C119     C      0.037990000000     0.467020000000     0.230540000000    -0.00543582 
C120     C      0.956350000000     0.428140000000     0.228240000000     0.327021   
C121     C      0.947910000000     0.638800000000     0.075130000000    -0.0176349  
C122     C      0.880800000000     0.564750000000     0.084160000000    -0.106063   
C123     C      0.961800000000     0.624010000000     0.013530000000    -0.00809144 
C124     C      0.890780000000     0.551500000000     0.018950000000     0.325872   
C125     C      0.389570000000     0.138480000000     0.940770000000    -0.0180171  
C126     C      0.307960000000     0.093220000000     0.942160000000    -0.0999454  
C127     C      0.387650000000     0.167790000000     0.887150000000    -0.00551664 
C128     C      0.303890000000     0.120130000000     0.887180000000     0.321658   
C129     C      0.387040000000     0.217200000000     0.435960000000    -0.0160512  
C130     C      0.302820000000     0.174130000000     0.431750000000    -0.102916   
C131     C      0.386840000000     0.239190000000     0.372010000000    -0.00794408 
C132     C      0.305100000000     0.200470000000     0.371460000000     0.325379   
C133     C      0.381690000000     0.061520000000     0.585380000000    -0.019581   
C134     C      0.453420000000     0.133230000000     0.586610000000    -0.106009   
C135     C      0.406780000000     0.037630000000     0.603200000000    -0.00603377 
C136     C      0.477570000000     0.109010000000     0.606110000000     0.324516   
C137     C      0.060560000000     0.377190000000     0.902410000000    -0.0195125  
C138     C      0.132640000000     0.447860000000     0.905840000000    -0.105703   
C139     C      0.038910000000     0.401270000000     0.870660000000    -0.00670391 
C140     C      0.111650000000     0.471110000000     0.871220000000     0.325133   
C141     C      0.289010000000     0.304090000000     0.764710000000    -0.0185815  
C142     C      0.218390000000     0.231890000000     0.769590000000    -0.105736   
C143     C      0.304050000000     0.287180000000     0.706760000000    -0.00766397 
C144     C      0.231760000000     0.216860000000     0.708550000000     0.325102   
C145     C      0.477870000000     0.426640000000     0.769230000000    -0.0142839  
C146     C      0.436290000000     0.466540000000     0.768950000000    -0.100988   
C147     C      0.501710000000     0.448910000000     0.706540000000    -0.0071458  
C148     C      0.460430000000     0.492170000000     0.707880000000     0.321901   
C149     C      0.589320000000     0.532260000000     0.196130000000    -0.0209417  
C150     C      0.549760000000     0.574110000000     0.195870000000    -0.101848   
C151     C      0.567900000000     0.509670000000     0.259980000000    -0.00149259 
C152     C      0.532110000000     0.558360000000     0.264570000000     0.321332   
C153     C      0.843460000000     0.229500000000     0.884720000000    -0.0192019  
C154     C      0.885930000000     0.188030000000     0.878720000000    -0.106873   
C155     C      0.869680000000     0.252320000000     0.946120000000    -0.00556858 
C156     C      0.908400000000     0.209690000000     0.942940000000     0.325178   
C157     C      0.825460000000     0.125660000000     0.386800000000    -0.0173601  
C158     C      0.785570000000     0.169640000000     0.390010000000    -0.103751   
C159     C      0.797340000000     0.098870000000     0.444760000000    -0.00858646 
C160     C      0.755760000000     0.138640000000     0.443260000000     0.324357   
C161     C      0.101070000000     0.304880000000     0.609740000000    -0.0162365  
C162     C      0.147680000000     0.385750000000     0.610370000000    -0.10028    
C163     C      0.120870000000     0.300960000000     0.545970000000    -0.00398933 
C164     C      0.161980000000     0.385520000000     0.539640000000     0.318004   
C165     C      0.229920000000     0.382500000000     0.048250000000    -0.0205516  
C166     C      0.185360000000     0.298770000000     0.051830000000    -0.105485   
C167     C      0.254630000000     0.381380000000     0.109030000000    -0.00387506 
C168     C      0.214440000000     0.300260000000     0.108360000000     0.326821   
C169     C      0.990870000000     0.293720000000     0.247510000000    -0.0190368  
C170     C      0.988260000000     0.221040000000     0.246430000000    -0.105639   
C171     C      0.039530000000     0.316180000000     0.225950000000    -0.00686892 
C172     C      0.034870000000     0.243130000000     0.219500000000     0.325386   
C173     C      0.323790000000     0.438580000000     0.425770000000    -0.0188188  
C174     C      0.320420000000     0.365890000000     0.425500000000    -0.102265   
C175     C      0.370320000000     0.460470000000     0.398770000000    -0.00371643 
C176     C      0.368880000000     0.388350000000     0.403370000000     0.32282    
C177     C      0.537320000000     0.957500000000     0.719410000000    -0.0229281  
C178     C      0.584740000000     0.038400000000     0.717350000000    -0.103858   
C179     C      0.512360000000     0.960080000000     0.778820000000    -0.00174468 
C180     C      0.558440000000     0.043700000000     0.772560000000     0.32586    
C181     C      0.502330000000     0.049810000000     0.277790000000    -0.0149671  
C182     C      0.455830000000     0.966170000000     0.281580000000    -0.105568   
C183     C      0.476280000000     0.049070000000     0.217430000000    -0.0117388  
C184     C      0.433310000000     0.967900000000     0.218830000000     0.324933   
C185     C      0.656260000000     0.050580000000     0.054920000000    -0.018508   
C186     C      0.655800000000     0.121290000000     0.045480000000    -0.104164   
C187     C      0.688790000000     0.069570000000     0.111790000000    -0.00698232 
C188     C      0.686540000000     0.139670000000     0.104140000000     0.323448   
C189     C      0.243010000000     0.864630000000     0.586470000000    -0.0163712  
C190     C      0.199440000000     0.902530000000     0.585510000000    -0.0998262  
C191     C      0.217370000000     0.836930000000     0.645010000000    -0.00559005 
C192     C      0.175570000000     0.879390000000     0.648210000000     0.319631   
C193     C      0.123660000000     0.825990000000     0.139960000000    -0.0191359  
C194     C      0.168990000000     0.787570000000     0.137910000000    -0.103665   
C195     C      0.093540000000     0.793840000000     0.088110000000    -0.00406082 
C196     C      0.135910000000     0.754820000000     0.089020000000     0.323943   
C197     C      0.302900000000     0.936900000000     0.954260000000    -0.0203834  
C198     C      0.308690000000     0.868790000000     0.953850000000    -0.108754   
C199     C      0.349520000000     0.962810000000     0.924930000000    -0.00483571 
C200     C      0.353260000000     0.893610000000     0.920280000000     0.328591   
C201     C      0.807150000000     0.622530000000     0.839280000000    -0.0187497  
C202     C      0.840590000000     0.705380000000     0.837270000000    -0.107834   
C203     C      0.773730000000     0.619850000000     0.890020000000    -0.00614539 
C204     C      0.806770000000     0.700780000000     0.887890000000     0.32713    
C205     C      0.911370000000     0.713790000000     0.386780000000    -0.017566   
C206     C      0.876090000000     0.632650000000     0.388250000000    -0.101897   
C207     C      0.875500000000     0.711280000000     0.341670000000    -0.00510857 
C208     C      0.838390000000     0.628140000000     0.344730000000     0.32268    
C209     C      0.712280000000     0.637250000000     0.535670000000    -0.0205123  
C210     C      0.709470000000     0.564570000000     0.538470000000    -0.10839    
C211     C      0.665550000000     0.615460000000     0.564940000000    -0.00587682 
C212     C      0.665410000000     0.544560000000     0.573340000000     0.327186   
C213     C      0.017320000000     0.703940000000     0.769600000000    -0.0213913  
C214     C      0.013430000000     0.773130000000     0.773320000000    -0.106202   
C215     C      0.007120000000     0.700230000000     0.696140000000    -0.00616084 
C216     C      0.009490000000     0.772160000000     0.699480000000     0.326433   
Cu1      Cu     0.863720000000     0.705350000000     0.608700000000     0.883552   
Cu2      Cu     0.856660000000     0.632270000000     0.618950000000     0.854208   
Cu3      Cu     0.153060000000     0.850080000000     0.875850000000     0.875748   
Cu4      Cu     0.165140000000     0.787460000000     0.859210000000     0.876935   
Cu5      Cu     0.503280000000     0.042280000000     0.987820000000     0.861822   
Cu6      Cu     0.500170000000     0.971740000000     0.008400000000     0.888213   
Cu7      Cu     0.186340000000     0.377540000000     0.315340000000     0.85658    
Cu8      Cu     0.173750000000     0.302860000000     0.333250000000     0.893303   
Cu9      Cu     0.838610000000     0.217490000000     0.173790000000     0.874251   
Cu10     Cu     0.844160000000     0.151050000000     0.156930000000     0.864806   
Cu11     Cu     0.513860000000     0.535470000000     0.491410000000     0.876317   
Cu12     Cu     0.520680000000     0.469440000000     0.478590000000     0.886749   
Cu13     Cu     0.140150000000     0.304200000000     0.834430000000     0.860758   
Cu14     Cu     0.206750000000     0.376610000000     0.819040000000     0.854001   
Cu15     Cu     0.307870000000     0.138770000000     0.654310000000     0.895697   
Cu16     Cu     0.379880000000     0.206360000000     0.666590000000     0.850587   
Cu17     Cu     0.966360000000     0.479800000000     0.939020000000     0.869971   
Cu18     Cu     0.038550000000     0.545960000000     0.958280000000     0.888068   
Cu19     Cu     0.627370000000     0.789260000000     0.321370000000     0.872866   
Cu20     Cu     0.702900000000     0.851630000000     0.335130000000     0.884361   
Cu21     Cu     0.790620000000     0.627760000000     0.124030000000     0.883178   
Cu22     Cu     0.854480000000     0.702200000000     0.109990000000     0.871275   
Cu23     Cu     0.481490000000     0.968180000000     0.507870000000     0.846908   
Cu24     Cu     0.548330000000     0.040400000000     0.492860000000     0.884633   
Cu25     Cu     0.384010000000     0.168640000000     0.169300000000     0.87904    
Cu26     Cu     0.310630000000     0.159780000000     0.147810000000     0.880848   
Cu27     Cu     0.544900000000     0.496290000000     0.971680000000     0.862728   
Cu28     Cu     0.478860000000     0.502240000000     0.995060000000     0.855098   
Cu29     Cu     0.213330000000     0.836690000000     0.356770000000     0.854792   
Cu30     Cu     0.147940000000     0.845230000000     0.369950000000     0.871195   
Cu31     Cu     0.037060000000     0.499460000000     0.457450000000     0.85822    
Cu32     Cu     0.964760000000     0.494280000000     0.441220000000     0.886728   
Cu33     Cu     0.857570000000     0.165130000000     0.653870000000     0.849937   
Cu34     Cu     0.794400000000     0.176960000000     0.669550000000     0.877704   
Cu35     Cu     0.702130000000     0.843260000000     0.830600000000     0.878827   
Cu36     Cu     0.626760000000     0.831020000000     0.817110000000     0.863007   
F1       F      0.647960000000     0.961810000000     0.776570000000    -0.437315   
F2       F      0.870110000000     0.374690000000     0.523710000000    -0.41991    
F3       F      0.041080000000     0.713610000000     0.400880000000    -0.433404   
F4       F      0.684100000000     0.715600000000     0.878110000000    -0.42339    
F5       F      0.357780000000     0.041520000000     0.233830000000    -0.436615   
F6       F      0.474240000000     0.288650000000     0.078820000000    -0.428534   
F7       F      0.746090000000     0.815370000000     0.511060000000    -0.429593   
F8       F      0.587180000000     0.832610000000     0.143680000000    -0.427541   
F9       F      0.679930000000     0.648390000000     0.160170000000    -0.437058   
F10      F      0.685470000000     0.959480000000     0.393330000000    -0.43258    
F11      F      0.081160000000     0.596850000000     0.765730000000    -0.422935   
F12      F      0.918580000000     0.415600000000     0.264650000000    -0.420918   
F13      F      0.872430000000     0.506320000000     0.018950000000    -0.425838   
F14      F      0.268690000000     0.092220000000     0.848080000000    -0.417157   
F15      F      0.267370000000     0.176370000000     0.334560000000    -0.42333    
F16      F      0.520520000000     0.132290000000     0.583380000000    -0.422239   
F17      F      0.133940000000     0.515020000000     0.888420000000    -0.419839   
F18      F      0.211420000000     0.171520000000     0.710030000000    -0.417754   
F19      F      0.430730000000     0.497070000000     0.669150000000    -0.431966   
F20      F      0.538910000000     0.594560000000     0.300460000000    -0.430518   
F21      F      0.918530000000     0.182070000000     0.977470000000    -0.430346   
F22      F      0.738860000000     0.159740000000     0.480230000000    -0.425364   
F23      F      0.154820000000     0.414890000000     0.504170000000    -0.431579   
F24      F      0.191700000000     0.262560000000     0.145390000000    -0.41583    
F25      F      0.054430000000     0.218660000000     0.236290000000    -0.416878   
F26      F      0.388530000000     0.366750000000     0.431970000000    -0.432488   
F27      F      0.587100000000     0.079080000000     0.810660000000    -0.426622   
F28      F      0.420380000000     0.930190000000     0.182650000000    -0.425261   
F29      F      0.712180000000     0.184670000000     0.096270000000    -0.423564   
F30      F      0.172590000000     0.909900000000     0.687230000000    -0.419619   
F31      F      0.156420000000     0.737580000000     0.051380000000    -0.4274     
F32      F      0.377860000000     0.873870000000     0.935370000000    -0.423271   
F33      F      0.823440000000     0.738360000000     0.925600000000    -0.421238   
F34      F      0.825100000000     0.591910000000     0.304890000000    -0.426708   
F35      F      0.642120000000     0.499820000000     0.561800000000    -0.427576   
F36      F      0.989630000000     0.795910000000     0.680390000000    -0.420954   
H1       H      0.709720000000     0.033870000000     0.819400000000     0.0925008  
H2       H      0.782380000000     0.030050000000     0.825880000000     0.0515141  
H3       H      0.781560000000     0.970430000000     0.761800000000     0.0540476  
H4       H      0.695630000000     0.047560000000     0.742210000000     0.0901521  
H5       H      0.683700000000     0.980470000000     0.693160000000    -0.00129483 
H6       H      0.819600000000     0.049990000000     0.758160000000     0.0541381  
H7       H      0.765160000000     0.988180000000     0.690780000000     0.0485426  
H8       H      0.861980000000     0.300330000000     0.492410000000     0.101335   
H9       H      0.936010000000     0.295930000000     0.494690000000     0.0503377  
H10      H      0.995830000000     0.367210000000     0.524920000000     0.0542853  
H11      H      0.834850000000     0.295190000000     0.568540000000     0.107772   
H12      H      0.895520000000     0.364860000000     0.606330000000    -0.00160303 
H13      H      0.955630000000     0.291250000000     0.573380000000     0.0490918  
H14      H      0.972740000000     0.364280000000     0.603960000000     0.0440424  
H15      H      0.042620000000     0.656580000000     0.324210000000     0.0888896  
H16      H      0.118400000000     0.658760000000     0.326510000000     0.0513634  
H17      H      0.166920000000     0.705830000000     0.414740000000     0.0512045  
H18      H      0.003570000000     0.626920000000     0.387530000000     0.0926426  
H19      H      0.051670000000     0.678620000000     0.469740000000    -0.00120177 
H20      H      0.127010000000     0.627230000000     0.387300000000     0.0536604  
H21      H      0.124870000000     0.675060000000     0.473490000000     0.0455957  
H22      H      0.638460000000     0.668910000000     0.972150000000     0.101188   
H23      H      0.563010000000     0.672540000000     0.978680000000     0.0547818  
H24      H      0.547300000000     0.700200000000     0.878430000000     0.0529338  
H25      H      0.638520000000     0.630440000000     0.915280000000     0.0939495  
H26      H      0.633920000000     0.669920000000     0.823780000000    -0.00201357 
H27      H      0.516330000000     0.630690000000     0.935210000000     0.0543556  
H28      H      0.553160000000     0.660660000000     0.830660000000     0.0462624  
H29      H      0.316040000000     0.015770000000     0.341890000000     0.0880751  
H30      H      0.244260000000     0.021990000000     0.341510000000     0.0548739  
H31      H      0.225240000000     0.036410000000     0.232620000000     0.0597241  
H32      H      0.313300000000     0.968400000000     0.304680000000     0.0911983  
H33      H      0.301960000000     0.990250000000     0.198040000000    -0.000974185
H34      H      0.194230000000     0.976200000000     0.311360000000     0.0568265  
H35      H      0.225390000000     0.988990000000     0.200570000000     0.0460421  
H36      H      0.457010000000     0.325140000000     0.983890000000     0.0889452  
H37      H      0.383640000000     0.329560000000     0.992300000000     0.0462712  
H38      H      0.346340000000     0.291130000000     0.089340000000     0.0564282  
H39      H      0.504580000000     0.365640000000     0.027350000000     0.0975527  
H40      H      0.469550000000     0.334920000000     0.131840000000     0.00223016 
H41      H      0.384050000000     0.369240000000     0.047290000000     0.0496357  
H42      H      0.388680000000     0.330940000000     0.140690000000     0.0485426  
H43      H      0.715610000000     0.856200000000     0.578880000000     0.0950942  
H44      H      0.620040000000     0.809540000000     0.573230000000     0.0509816  
H45      H      0.596730000000     0.740540000000     0.515220000000     0.0520554  
H46      H      0.736680000000     0.832480000000     0.635340000000     0.0976305  
H47      H      0.707690000000     0.765810000000     0.572500000000    -0.00170545 
H48      H      0.595530000000     0.764470000000     0.629590000000     0.0509032  
H49      H      0.626510000000     0.725650000000     0.571410000000     0.0452924  
H50      H      0.626270000000     0.894330000000     0.060650000000     0.0929313  
H51      H      0.709130000000     0.932260000000     0.058870000000     0.0488613  
H52      H      0.733760000000     0.901070000000     0.139790000000     0.0531379  
H53      H      0.594740000000     0.844410000000     0.015090000000     0.095597   
H54      H      0.614160000000     0.803480000000     0.090150000000     0.00302506 
H55      H      0.736190000000     0.907850000000     0.016470000000     0.0538696  
H56      H      0.713650000000     0.850790000000     0.096130000000     0.0467557  
H57      H      0.700570000000     0.684490000000     0.273130000000     0.0933861  
H58      H      0.780370000000     0.758080000000     0.265610000000     0.053436   
H59      H      0.802660000000     0.783840000000     0.150790000000     0.0583554  
H60      H      0.654180000000     0.689110000000     0.247110000000     0.0983984  
H61      H      0.681150000000     0.704760000000     0.136420000000     0.000987732
H62      H      0.781020000000     0.808280000000     0.247190000000     0.0572224  
H63      H      0.749810000000     0.779100000000     0.137370000000     0.0500404  
H64      H      0.624490000000     0.971320000000     0.347670000000     0.0932037  
H65      H      0.548020000000     0.897020000000     0.343920000000     0.0587951  
H66      H      0.549610000000     0.837570000000     0.403950000000     0.0543962  
H67      H      0.640410000000     0.999960000000     0.424030000000     0.0930728  
H68      H      0.647750000000     0.941970000000     0.474810000000    -0.00115353 
H69      H      0.513730000000     0.881770000000     0.414860000000     0.0547203  
H70      H      0.567540000000     0.870450000000     0.476160000000     0.0438388  
H71      H      0.050330000000     0.528660000000     0.690660000000     0.0970633  
H72      H      0.952140000000     0.481030000000     0.683820000000     0.0558888  
H73      H      0.931810000000     0.519570000000     0.760090000000     0.0512441  
H74      H      0.073420000000     0.576760000000     0.640130000000     0.0919543  
H75      H      0.042180000000     0.610930000000     0.709120000000    -0.00652119 
H76      H      0.933380000000     0.511260000000     0.636930000000     0.0589934  
H77      H      0.960010000000     0.569430000000     0.714200000000     0.0396969  
H78      H      0.948830000000     0.479740000000     0.184550000000     0.101316   
H79      H      0.045720000000     0.528240000000     0.194780000000     0.0544286  
H80      H      0.067860000000     0.484810000000     0.261480000000     0.0498771  
H81      H      0.929720000000     0.431890000000     0.135070000000     0.10149    
H82      H      0.955330000000     0.397820000000     0.210440000000    -0.00259408 
H83      H      0.069980000000     0.504380000000     0.144010000000     0.0532979  
H84      H      0.037560000000     0.437600000000     0.209940000000     0.0417833  
H85      H      0.896440000000     0.555210000000     0.123120000000     0.0979218  
H86      H      0.964550000000     0.633590000000     0.117450000000     0.0519937  
H87      H      0.998290000000     0.639270000000     0.013120000000     0.0562289  
H88      H      0.844590000000     0.546340000000     0.092390000000     0.108391   
H89      H      0.874590000000     0.560440000000     0.980080000000    -0.00177136 
H90      H      0.959810000000     0.674500000000     0.071840000000     0.0517613  
H91      H      0.952540000000     0.636960000000     0.970690000000     0.0431183  
H92      H      0.309400000000     0.065100000000     0.920210000000     0.0894634  
H93      H      0.392160000000     0.111360000000     0.917490000000     0.050277   
H94      H      0.416720000000     0.178470000000     0.854790000000     0.0523927  
H95      H      0.278250000000     0.079670000000     0.973810000000     0.093439   
H96      H      0.295950000000     0.144200000000     0.909200000000     0.00713306 
H97      H      0.419400000000     0.157990000000     0.971180000000     0.0606496  
H98      H      0.390200000000     0.197580000000     0.910060000000     0.0516048  
H99      H      0.297830000000     0.141680000000     0.416310000000     0.092904   
H100     H      0.394860000000     0.190910000000     0.424990000000     0.0523368  
H101     H      0.416790000000     0.246930000000     0.343290000000     0.0573251  
H102     H      0.273830000000     0.168340000000     0.461460000000     0.0982643  
H103     H      0.306200000000     0.231170000000     0.387530000000     0.0081027  
H104     H      0.414190000000     0.241700000000     0.467040000000     0.0590217  
H105     H      0.388530000000     0.270810000000     0.383880000000     0.0639579  
H106     H      0.455710000000     0.137610000000     0.532910000000     0.0927992  
H107     H      0.377020000000     0.059800000000     0.531750000000     0.0501499  
H108     H      0.389320000000     0.004380000000     0.581130000000     0.0482138  
H109     H      0.470730000000     0.166400000000     0.608950000000     0.0992079  
H110     H      0.478860000000     0.108620000000     0.660150000000     0.00331705 
H111     H      0.348490000000     0.043890000000     0.608230000000     0.0547351  
H112     H      0.405620000000     0.033550000000     0.656930000000     0.0451133  
H113     H      0.130440000000     0.451700000000     0.959180000000     0.0877423  
H114     H      0.055080000000     0.376120000000     0.955800000000     0.0485594  
H115     H      0.003970000000     0.385400000000     0.886760000000     0.048319   
H116     H      0.168180000000     0.464160000000     0.892930000000     0.0975797  
H117     H      0.115940000000     0.469020000000     0.817980000000     0.00400488 
H118     H      0.044030000000     0.342890000000     0.884230000000     0.0521486  
H119     H      0.039010000000     0.397070000000     0.817070000000     0.0438021  
H120     H      0.228570000000     0.220150000000     0.812900000000     0.0967403  
H121     H      0.303580000000     0.299080000000     0.809690000000     0.0474838  
H122     H      0.340410000000     0.301640000000     0.709380000000     0.0516197  
H123     H      0.181860000000     0.216140000000     0.770340000000     0.101178   
H124     H      0.219130000000     0.226370000000     0.665550000000     0.00191386 
H125     H      0.302590000000     0.339960000000     0.758940000000     0.0522731  
H126     H      0.296700000000     0.299510000000     0.661390000000     0.0489502  
H127     H      0.405870000000     0.436100000000     0.753920000000     0.0870508  
H128     H      0.447500000000     0.395590000000     0.756060000000     0.0452234  
H129     H      0.504000000000     0.424170000000     0.675720000000     0.05879    
H130     H      0.426580000000     0.486700000000     0.798740000000     0.088215   
H131     H      0.486980000000     0.525340000000     0.722770000000     0.000460601
H132     H      0.498890000000     0.417940000000     0.799060000000     0.050328   
H133     H      0.536040000000     0.474380000000     0.718970000000     0.0519439  
H134     H      0.581160000000     0.605900000000     0.199970000000     0.107573   
H135     H      0.620680000000     0.562890000000     0.207190000000     0.0816724  
H136     H      0.592230000000     0.505150000000     0.288850000000     0.0557482  
H137     H      0.526240000000     0.580580000000     0.168350000000     0.0880988  
H138     H      0.495890000000     0.535860000000     0.261040000000    -0.00147006 
H139     H      0.597010000000     0.510310000000     0.167020000000     0.0602869  
H140     H      0.539670000000     0.476500000000     0.249070000000     0.0507211  
H141     H      0.859730000000     0.153750000000     0.889070000000     0.0925868  
H142     H      0.810250000000     0.202670000000     0.899370000000     0.0598578  
H143     H      0.849840000000     0.262190000000     0.976530000000     0.0586077  
H144     H      0.910610000000     0.186110000000     0.846950000000     0.0898753  
H145     H      0.939990000000     0.239790000000     0.930740000000    -0.00512834 
H146     H      0.838720000000     0.253480000000     0.855600000000     0.0542703  
H147     H      0.900470000000     0.282480000000     0.931410000000     0.0428887  
H148     H      0.811840000000     0.200180000000     0.413020000000     0.0931036  
H149     H      0.858520000000     0.150330000000     0.405420000000     0.0495487  
H150     H      0.816440000000     0.088210000000     0.475450000000     0.0548588  
H151     H      0.765620000000     0.178660000000     0.358190000000     0.0993861  
H152     H      0.727740000000     0.109780000000     0.419450000000     0.00294701 
H153     H      0.830440000000     0.103520000000     0.353770000000     0.0574138  
H154     H      0.768350000000     0.068790000000     0.425310000000     0.0619376  
H155     H      0.118810000000     0.390900000000     0.609570000000     0.0913822  
H156     H      0.071730000000     0.308150000000     0.598730000000     0.0477431  
H157     H      0.094800000000     0.273250000000     0.517450000000     0.0508378  
H158     H      0.174490000000     0.414220000000     0.636580000000     0.0871365  
H159     H      0.198150000000     0.398230000000     0.539750000000     0.000357222
H160     H      0.090110000000     0.274430000000     0.638530000000     0.0518631  
H161     H      0.146990000000     0.292690000000     0.556880000000     0.0512289  
H162     H      0.153720000000     0.294140000000     0.071540000000     0.0997695  
H163     H      0.204780000000     0.391190000000     0.063490000000     0.0502221  
H164     H      0.264410000000     0.411160000000     0.138920000000     0.047059   
H165     H      0.177670000000     0.269970000000     0.020680000000     0.0971106  
H166     H      0.244240000000     0.301050000000     0.087880000000    -0.00237757 
H167     H      0.253550000000     0.409270000000     0.015900000000     0.0507649  
H168     H      0.285430000000     0.382370000000     0.092860000000     0.0398081  
H169     H      0.990020000000     0.219470000000     0.300300000000     0.0891471  
H170     H      0.989990000000     0.296340000000     0.301310000000     0.0509037  
H171     H      0.057530000000     0.349280000000     0.248430000000     0.0502213  
H172     H      0.969970000000     0.186800000000     0.228090000000     0.103454   
H173     H      0.032660000000     0.243130000000     0.165520000000     0.00915759 
H174     H      0.975330000000     0.311720000000     0.226070000000     0.0547919  
H175     H      0.040720000000     0.320570000000     0.172290000000     0.0454853  
H176     H      0.319540000000     0.363090000000     0.479420000000     0.0934874  
H177     H      0.325850000000     0.440740000000     0.479760000000     0.0593074  
H178     H      0.388040000000     0.495280000000     0.414640000000     0.0582912  
H179     H      0.302520000000     0.332180000000     0.405020000000     0.0955196  
H180     H      0.369320000000     0.384510000000     0.349750000000    -0.00145826 
H181     H      0.307420000000     0.456960000000     0.409170000000     0.0582631  
H182     H      0.368350000000     0.460270000000     0.344770000000     0.0460357  
H183     H      0.612360000000     0.035540000000     0.738880000000     0.100699   
H184     H      0.565050000000     0.953400000000     0.737190000000     0.0779072  
H185     H      0.505960000000     0.932810000000     0.812500000000     0.0617729  
H186     H      0.599020000000     0.068120000000     0.686070000000     0.104017   
H187     H      0.533540000000     0.050870000000     0.751170000000     0.00588865 
H188     H      0.515300000000     0.928090000000     0.689950000000     0.0559349  
H189     H      0.479670000000     0.954330000000     0.762190000000     0.0477415  
H190     H      0.480600000000     0.956350000000     0.269140000000     0.0940649  
H191     H      0.534630000000     0.054130000000     0.261910000000     0.0547079  
H192     H      0.497210000000     0.078490000000     0.187240000000     0.0580958  
H193     H      0.430720000000     0.939940000000     0.313200000000     0.09106    
H194     H      0.403030000000     0.968710000000     0.232820000000     0.00819089 
H195     H      0.509100000000     0.078690000000     0.308110000000     0.0581013  
H196     H      0.446750000000     0.050600000000     0.233500000000     0.0745569  
H197     H      0.676140000000     0.131680000000     0.000470000000     0.100802   
H198     H      0.675500000000     0.055440000000     0.009600000000     0.0552396  
H199     H      0.710960000000     0.055470000000     0.110420000000     0.0528743  
H200     H      0.634220000000     0.136080000000     0.044510000000     0.103245   
H201     H      0.666040000000     0.133110000000     0.148540000000     0.00268752 
H202     H      0.634920000000     0.014690000000     0.062320000000     0.0570012  
H203     H      0.669620000000     0.058350000000     0.157800000000     0.0475459  
H204     H      0.228860000000     0.934290000000     0.599030000000     0.0918187  
H205     H      0.272410000000     0.894970000000     0.604400000000     0.0469702  
H206     H      0.240180000000     0.831260000000     0.675850000000     0.0499879  
H207     H      0.177670000000     0.910210000000     0.555640000000     0.0942901  
H208     H      0.141450000000     0.853710000000     0.635190000000     0.00645895 
H209     H      0.254500000000     0.845920000000     0.556700000000     0.049589   
H210     H      0.190980000000     0.804440000000     0.627400000000     0.0490914  
H211     H      0.198090000000     0.813070000000     0.110960000000     0.0923833  
H212     H      0.147450000000     0.857060000000     0.115350000000     0.0512584  
H213     H      0.079640000000     0.809820000000     0.056960000000     0.0487488  
H214     H      0.180400000000     0.769960000000     0.170380000000     0.0940028  
H215     H      0.108750000000     0.727550000000     0.116690000000    -0.00204011 
H216     H      0.103430000000     0.833720000000     0.173170000000     0.0539398  
H217     H      0.065510000000     0.765790000000     0.113260000000     0.0428738  
H218     H      0.314280000000     0.870310000000     0.007270000000     0.102512   
H219     H      0.305800000000     0.940860000000     0.008000000000     0.0553066  
H220     H      0.365900000000     0.996790000000     0.944430000000     0.0516715  
H221     H      0.292250000000     0.833760000000     0.939200000000     0.107761   
H222     H      0.347410000000     0.890590000000     0.866860000000    -0.00133633 
H223     H      0.282920000000     0.951340000000     0.936580000000     0.0566026  
H224     H      0.346240000000     0.964710000000     0.871400000000     0.0458296  
H225     H      0.871920000000     0.713970000000     0.862730000000     0.092236   
H226     H      0.834540000000     0.621450000000     0.864960000000     0.0496618  
H227     H      0.763990000000     0.590810000000     0.921670000000     0.0522485  
H228     H      0.847380000000     0.733130000000     0.804430000000     0.103069   
H229     H      0.777410000000     0.697170000000     0.861440000000     0.0161177  
H230     H      0.790660000000     0.593270000000     0.807150000000     0.0533119  
H231     H      0.743860000000     0.615380000000     0.864110000000     0.0500034  
H232     H      0.902640000000     0.634250000000     0.356650000000     0.0964494  
H233     H      0.938830000000     0.716580000000     0.356130000000     0.0649182  
H234     H      0.890300000000     0.739890000000     0.308190000000     0.0513837  
H235     H      0.863810000000     0.603190000000     0.419800000000     0.0967986  
H236     H      0.810190000000     0.622430000000     0.376240000000     0.00110882 
H237     H      0.924630000000     0.743710000000     0.417520000000     0.0622367  
H238     H      0.850820000000     0.714240000000     0.371970000000     0.0479634  
H239     H      0.703250000000     0.559270000000     0.485290000000     0.0956547  
H240     H      0.709270000000     0.637990000000     0.481910000000     0.0541709  
H241     H      0.647870000000     0.631650000000     0.544570000000     0.0530948  
H242     H      0.727090000000     0.547160000000     0.553880000000     0.102607   
H243     H      0.672030000000     0.549440000000     0.626490000000    -0.00066404 
H244     H      0.731200000000     0.671710000000     0.552960000000     0.0590634  
H245     H      0.668690000000     0.621300000000     0.618320000000     0.0469233  
H246     H      0.979710000000     0.755770000000     0.794640000000     0.0869616  
H247     H      0.985640000000     0.683970000000     0.795810000000     0.0477667  
H248     H      0.987160000000     0.665090000000     0.682450000000     0.0499586  
H249     H      0.029910000000     0.807700000000     0.790250000000     0.106539   
H250     H      0.043340000000     0.788470000000     0.678570000000     0.00828617 
H251     H      0.038630000000     0.689620000000     0.780240000000     0.0603324  
H252     H      0.038970000000     0.714100000000     0.669580000000     0.0494593  
N1       N      0.715660000000     0.962060000000     0.763320000000    -0.192318   
N2       N      0.759680000000     0.053320000000     0.748740000000    -0.154254   
N3       N      0.939040000000     0.375750000000     0.528010000000    -0.19114    
N4       N      0.892540000000     0.287870000000     0.571460000000    -0.152171   
N5       N      0.108650000000     0.712720000000     0.411030000000    -0.192824   
N6       N      0.062780000000     0.622220000000     0.386660000000    -0.153735   
N7       N      0.613260000000     0.709650000000     0.871550000000    -0.191683   
N8       N      0.575990000000     0.626700000000     0.931780000000    -0.152712   
N9       N      0.288910000000     0.040220000000     0.227130000000    -0.192013   
N10      N      0.251820000000     0.968440000000     0.312660000000    -0.15384    
N11      N      0.406830000000     0.288960000000     0.094040000000    -0.192417   
N12      N      0.446210000000     0.371610000000     0.032860000000    -0.154325   
N13      N      0.667770000000     0.778670000000     0.509620000000    -0.194612   
N14      N      0.666010000000     0.805850000000     0.636080000000    -0.152289   
N15      N      0.663530000000     0.857200000000     0.143180000000    -0.190376   
N16      N      0.665340000000     0.874060000000     0.009650000000    -0.152615   
N17      N      0.746100000000     0.717920000000     0.154550000000    -0.190655   
N18      N      0.716360000000     0.749730000000     0.254750000000    -0.152158   
N19      N      0.616070000000     0.893390000000     0.402330000000    -0.191532   
N20      N      0.575020000000     0.943780000000     0.419550000000    -0.153189   
N21      N      0.002720000000     0.554330000000     0.765890000000    -0.195493   
N22      N      0.003280000000     0.535070000000     0.634280000000    -0.152553   
N23      N      0.996960000000     0.453600000000     0.266360000000    -0.194112   
N24      N      0.999900000000     0.476370000000     0.135160000000    -0.150852   
N25      N      0.939070000000     0.575670000000     0.008190000000    -0.194221   
N26      N      0.899860000000     0.612520000000     0.084710000000    -0.151965   
N27      N      0.345770000000     0.144830000000     0.850330000000    -0.191392   
N28      N      0.348720000000     0.120320000000     0.978550000000    -0.153356   
N29      N      0.345890000000     0.211430000000     0.336200000000    -0.192325   
N30      N      0.343990000000     0.197120000000     0.469750000000    -0.151618   
N31      N      0.453270000000     0.063250000000     0.582560000000    -0.192952   
N32      N      0.406470000000     0.108000000000     0.604970000000    -0.152107   
N33      N      0.063940000000     0.448580000000     0.886010000000    -0.193275   
N34      N      0.108360000000     0.400820000000     0.889670000000    -0.153743   
N35      N      0.280400000000     0.238780000000     0.704330000000    -0.19121    
N36      N      0.240580000000     0.280070000000     0.771530000000    -0.15232    
N37      N      0.480610000000     0.470320000000     0.671390000000    -0.190738   
N38      N      0.465320000000     0.454970000000     0.804130000000    -0.156255   
N39      N      0.551570000000     0.534430000000     0.297710000000    -0.188707   
N40      N      0.559050000000     0.542910000000     0.162660000000    -0.148069   
N41      N      0.880890000000     0.222610000000     0.980340000000    -0.193322   
N42      N      0.865320000000     0.210650000000     0.845560000000    -0.151996   
N43      N      0.781660000000     0.124140000000     0.481610000000    -0.192234   
N44      N      0.806410000000     0.149220000000     0.352170000000    -0.151559   
N45      N      0.140330000000     0.341880000000     0.507530000000    -0.188333   
N46      N      0.134260000000     0.344110000000     0.643550000000    -0.153629   
N47      N      0.227710000000     0.340680000000     0.145510000000    -0.194038   
N48      N      0.207070000000     0.339870000000     0.013900000000    -0.152919   
N49      N      0.059370000000     0.288970000000     0.242490000000    -0.192849   
N50      N      0.967110000000     0.246910000000     0.229480000000    -0.151363   
N51      N      0.392200000000     0.435830000000     0.418850000000    -0.191422   
N52      N      0.300170000000     0.392160000000     0.406490000000    -0.152955   
N53      N      0.535420000000     0.003190000000     0.811850000000    -0.190255   
N54      N      0.555400000000     0.998160000000     0.681590000000    -0.149479   
N55      N      0.462320000000     0.008030000000     0.182190000000    -0.18981    
N56      N      0.478760000000     0.008810000000     0.315850000000    -0.150811   
N57      N      0.713230000000     0.118010000000     0.111130000000    -0.191596   
N58      N      0.630580000000     0.073060000000     0.047700000000    -0.149854   
N59      N      0.196880000000     0.857800000000     0.682860000000    -0.189587   
N60      N      0.214390000000     0.876250000000     0.550090000000    -0.154417   
N61      N      0.118030000000     0.777590000000     0.050410000000    -0.195005   
N62      N      0.148940000000     0.809060000000     0.175160000000    -0.152884   
N63      N      0.375000000000     0.940580000000     0.938170000000    -0.192607   
N64      N      0.282570000000     0.889870000000     0.938560000000    -0.150667   
N65      N      0.793530000000     0.661060000000     0.926800000000    -0.192957   
N66      N      0.825560000000     0.663790000000     0.801710000000    -0.152371   
N67      N      0.852780000000     0.668880000000     0.306840000000    -0.193508   
N68      N      0.893370000000     0.673490000000     0.425560000000    -0.149735   
N69      N      0.641940000000     0.567750000000     0.553020000000    -0.194424   
N70      N      0.734340000000     0.612000000000     0.551630000000    -0.151967   
N71      N      0.985520000000     0.725750000000     0.678860000000    -0.192927   
N72      N      0.037090000000     0.749910000000     0.791500000000    -0.152429   
O1       O      0.799570000000     0.673480000000     0.579350000000    -0.390537   
O2       O      0.926460000000     0.729800000000     0.639220000000    -0.35084    
O3       O      0.883110000000     0.705540000000     0.515640000000    -0.388806   
O4       O      0.844770000000     0.698590000000     0.703060000000    -0.386977   
O5       O      0.837500000000     0.632220000000     0.712280000000    -0.392379   
O6       O      0.875190000000     0.638850000000     0.524300000000    -0.389025   
O7       O      0.921000000000     0.664320000000     0.647940000000    -0.396492   
O8       O      0.793680000000     0.607750000000     0.588970000000    -0.391882   
O9       O      0.091940000000     0.811320000000     0.840210000000    -0.388991   
O10      O      0.216250000000     0.883520000000     0.909320000000    -0.388381   
O11      O      0.174420000000     0.867670000000     0.783240000000    -0.349321   
O12      O      0.131270000000     0.825310000000     0.966260000000    -0.399617   
O13      O      0.143240000000     0.769440000000     0.951490000000    -0.352137   
O14      O      0.186800000000     0.812070000000     0.768720000000    -0.396244   
O15      O      0.226510000000     0.826540000000     0.895120000000    -0.384128   
O16      O      0.101960000000     0.754280000000     0.824900000000    -0.384984   
O17      O      0.438490000000     0.005480000000     0.961160000000    -0.393334   
O18      O      0.567170000000     0.071780000000     0.016040000000    -0.381943   
O19      O      0.522310000000     0.038080000000     0.895770000000    -0.361391   
O20      O      0.485130000000     0.040240000000     0.082250000000    -0.392498   
O21      O      0.480390000000     0.975580000000     0.100190000000    -0.353499   
O22      O      0.517950000000     0.973590000000     0.914050000000    -0.388022   
O23      O      0.564980000000     0.008400000000     0.034480000000    -0.3878     
O24      O      0.436790000000     0.942350000000     0.979040000000    -0.34386    
O25      O      0.246410000000     0.399500000000     0.355020000000    -0.393613   
O26      O      0.124110000000     0.348250000000     0.277780000000    -0.394571   
O27      O      0.162700000000     0.373590000000     0.406750000000    -0.356073   
O28      O      0.210790000000     0.374710000000     0.226580000000    -0.397362   
O29      O      0.198320000000     0.306910000000     0.242800000000    -0.34471    
O30      O      0.149810000000     0.305540000000     0.422070000000    -0.395555   
O31      O      0.113520000000     0.281130000000     0.293130000000    -0.344589   
O32      O      0.235890000000     0.332370000000     0.371200000000    -0.387038   
O33      O      0.775110000000     0.181420000000     0.143670000000    -0.348283   
O34      O      0.903200000000     0.247080000000     0.202760000000    -0.385402   
O35      O      0.857750000000     0.232860000000     0.079650000000    -0.389744   
O36      O      0.818900000000     0.195290000000     0.265950000000    -0.384454   
O37      O      0.825790000000     0.136240000000     0.251530000000    -0.389326   
O38      O      0.863940000000     0.173540000000     0.064450000000    -0.351196   
O39      O      0.907150000000     0.186540000000     0.187200000000    -0.385915   
O40      O      0.779590000000     0.121140000000     0.129570000000    -0.395661   
O41      O      0.577900000000     0.566230000000     0.522370000000    -0.394388   
O42      O      0.451240000000     0.498290000000     0.459130000000    -0.389459   
O43      O      0.493230000000     0.514780000000     0.583310000000    -0.366325   
O44      O      0.533600000000     0.549240000000     0.397920000000    -0.358331   
O45      O      0.541030000000     0.490380000000     0.386140000000    -0.393107   
O46      O      0.500730000000     0.455850000000     0.572520000000    -0.388047   
O47      O      0.456950000000     0.438480000000     0.448010000000    -0.354357   
O48      O      0.583040000000     0.506150000000     0.510790000000    -0.355165   
O49      O      0.109780000000     0.338020000000     0.863450000000    -0.389939   
O50      O      0.176910000000     0.277880000000     0.804170000000    -0.390323   
O51      O      0.161910000000     0.306250000000     0.926680000000    -0.387902   
O52      O      0.125030000000     0.308650000000     0.740570000000    -0.393174   
O53      O      0.184200000000     0.374770000000     0.726950000000    -0.387964   
O54      O      0.221340000000     0.372260000000     0.913350000000    -0.392794   
O55      O      0.237370000000     0.342910000000     0.790430000000    -0.389741   
O56      O      0.170460000000     0.402990000000     0.850250000000    -0.393277   
O57      O      0.280080000000     0.175210000000     0.678240000000    -0.343302   
O58      O      0.342880000000     0.108690000000     0.630710000000    -0.389596   
O59      O      0.312500000000     0.128210000000     0.750080000000    -0.345508   
O60      O      0.309740000000     0.156330000000     0.560020000000    -0.390335   
O61      O      0.375800000000     0.216340000000     0.570450000000    -0.389878   
O62      O      0.377850000000     0.188740000000     0.761290000000    -0.396256   
O63      O      0.407670000000     0.169920000000     0.642250000000    -0.391006   
O64      O      0.344570000000     0.236680000000     0.688410000000    -0.392872   
O65      O      0.000810000000     0.450360000000     0.910140000000    -0.400889   
O66      O      0.938980000000     0.514840000000     0.969550000000    -0.35612    
O67      O      0.969930000000     0.503820000000     0.847640000000    -0.394745   
O68      O      0.969050000000     0.463740000000     0.033330000000    -0.382882   
O69      O      0.035120000000     0.522640000000     0.049810000000    -0.388344   
O70      O      0.035740000000     0.562760000000     0.865050000000    -0.349389   
O71      O      0.003480000000     0.575190000000     0.986980000000    -0.392327   
O72      O      0.065780000000     0.510280000000     0.926740000000    -0.343974   
O73      O      0.606660000000     0.829460000000     0.357840000000    -0.392383   
O74      O      0.656260000000     0.755210000000     0.286830000000    -0.383301   
O75      O      0.632460000000     0.771760000000     0.413190000000    -0.398758   
O76      O      0.628990000000     0.812790000000     0.230700000000    -0.361582   
O77      O      0.697630000000     0.868480000000     0.242390000000    -0.393286   
O78      O      0.701090000000     0.827270000000     0.425580000000    -0.355942   
O79      O      0.723930000000     0.812360000000     0.299170000000    -0.394551   
O80      O      0.674720000000     0.885760000000     0.369900000000    -0.353742   
O81      O      0.754400000000     0.657390000000     0.141630000000    -0.352977   
O82      O      0.832630000000     0.605730000000     0.105220000000    -0.387449   
O83      O      0.808450000000     0.633530000000     0.219240000000    -0.355198   
O84      O      0.780010000000     0.628720000000     0.027100000000    -0.393499   
O85      O      0.836630000000     0.696630000000     0.015030000000    -0.359732   
O86      O      0.865390000000     0.701150000000     0.206570000000    -0.400878   
O87      O      0.890690000000     0.672600000000     0.092410000000    -0.394103   
O88      O      0.812540000000     0.724160000000     0.129490000000    -0.395366   
O89      O      0.515710000000     0.941750000000     0.469140000000    -0.396762   
O90      O      0.453000000000     0.001630000000     0.545060000000    -0.398837   
O91      O      0.464840000000     0.975410000000     0.415790000000    -0.390143   
O92      O      0.505980000000     0.967410000000     0.597610000000    -0.390264   
O93      O      0.565540000000     0.033280000000     0.584180000000    -0.382468   
O94      O      0.524510000000     0.041290000000     0.403020000000    -0.38695    
O95      O      0.513480000000     0.066570000000     0.531990000000    -0.347328   
O96      O      0.576690000000     0.006470000000     0.455770000000    -0.38614    
O97      O      0.351220000000     0.105670000000     0.202120000000    -0.353013   
O98      O      0.409650000000     0.229890000000     0.134340000000    -0.357203   
O99      O      0.379570000000     0.191480000000     0.258450000000    -0.392941   
O100     O      0.381770000000     0.146870000000     0.077100000000    -0.381073   
O101     O      0.314370000000     0.136560000000     0.059260000000    -0.392431   
O102     O      0.313030000000     0.182590000000     0.238520000000    -0.352925   
O103     O      0.343950000000     0.222900000000     0.114430000000    -0.391437   
O104     O      0.285240000000     0.098470000000     0.184430000000    -0.392129   
O105     O      0.509480000000     0.433470000000     0.001870000000    -0.394098   
O106     O      0.574110000000     0.560700000000     0.944200000000    -0.38648    
O107     O      0.563870000000     0.515570000000     0.064400000000    -0.388199   
O108     O      0.518790000000     0.475640000000     0.881810000000    -0.395043   
O109     O      0.459880000000     0.482450000000     0.902180000000    -0.394078   
O110     O      0.505460000000     0.523150000000     0.085030000000    -0.392036   
O111     O      0.513720000000     0.564720000000     0.964410000000    -0.396804   
O112     O      0.449560000000     0.438220000000     0.022750000000    -0.394791   
O113     O      0.246450000000     0.901550000000     0.332120000000    -0.389058   
O114     O      0.174090000000     0.773300000000     0.382800000000    -0.399979   
O115     O      0.193580000000     0.819980000000     0.263040000000    -0.389023   
O116     O      0.226130000000     0.853110000000     0.452030000000    -0.394572   
O117     O      0.168010000000     0.862420000000     0.463510000000    -0.38764    
O118     O      0.135290000000     0.828980000000     0.274670000000    -0.389503   
O119     O      0.114780000000     0.780370000000     0.394390000000    -0.350183   
O120     O      0.186930000000     0.908440000000     0.343580000000    -0.395338   
O121     O      0.064280000000     0.561460000000     0.422920000000    -0.394576   
O122     O      0.002320000000     0.436600000000     0.491610000000    -0.390701   
O123     O      0.031310000000     0.477440000000     0.364790000000    -0.396715   
O124     O      0.036440000000     0.522020000000     0.548050000000    -0.390484   
O125     O      0.970170000000     0.515380000000     0.534330000000    -0.387968   
O126     O      0.965560000000     0.471700000000     0.350180000000    -0.350071   
O127     O      0.937590000000     0.432740000000     0.476350000000    -0.342815   
O128     O      0.999270000000     0.557520000000     0.409390000000    -0.39029    
O129     O      0.819970000000     0.106010000000     0.695120000000    -0.397202   
O130     O      0.889770000000     0.226230000000     0.614120000000    -0.393429   
O131     O      0.876720000000     0.189670000000     0.745060000000    -0.391005   
O132     O      0.830970000000     0.139840000000     0.565100000000    -0.395717   
O133     O      0.774740000000     0.151750000000     0.579130000000    -0.350333   
O134     O      0.820440000000     0.201670000000     0.758600000000    -0.388321   
O135     O      0.832350000000     0.236360000000     0.627750000000    -0.384222   
O136     O      0.762230000000     0.115600000000     0.709040000000    -0.385914   
O137     O      0.673150000000     0.778760000000     0.855840000000    -0.348347   
O138     O      0.723360000000     0.905460000000     0.802440000000    -0.403305   
O139     O      0.698680000000     0.860600000000     0.923820000000    -0.388829   
O140     O      0.699090000000     0.826600000000     0.735810000000    -0.388945   
O141     O      0.630330000000     0.813740000000     0.723970000000    -0.391853   
O142     O      0.630300000000     0.848790000000     0.911850000000    -0.38546    
O143     O      0.655690000000     0.895080000000     0.789520000000    -0.354446   
O144     O      0.605440000000     0.768590000000     0.845130000000    -0.400975   


