data_structure

_audit_creation_method RASPA-1.0
_audit_creation_date 2023-6-4
_audit_author_name 'Poobodin Mano'

_cell_length_a    29.1123
_cell_length_b    28.9606
_cell_length_c    19.7797
_cell_angle_alpha 89.9989
_cell_angle_beta  89.9989
_cell_angle_gamma 96.769
_cell_volume      16560.2

_symmetry_cell_setting          triclinic
_symmetry_space_group_name_Hall 'P 1'
_symmetry_space_group_name_H-M  'P 1'
_symmetry_Int_Tables_number     1

_symmetry_equiv_pos_as_xyz 'x,y,z'

loop_
_atom_site_label
_atom_site_type_symbol
_atom_site_fract_x
_atom_site_fract_y
_atom_site_fract_z
_atom_site_charge
C1       C      0.404860000000     0.079450000000     0.044240000000     0.390406   
C2       C      0.033770000000     0.460770000000     0.043710000000     0.391007   
C3       C      0.406730000000     0.454180000000     0.009540000000     0.408897   
C4       C      0.031140000000     0.093130000000     0.080530000000     0.403485   
C5       C      0.078400000000     0.406800000000     0.541200000000     0.391723   
C6       C      0.453760000000     0.029570000000     0.546300000000     0.393353   
C7       C      0.085710000000     0.033460000000     0.523360000000     0.416002   
C8       C      0.454010000000     0.398270000000     0.562580000000     0.416934   
C9       C      0.201920000000     0.256050000000     0.912660000000     0.472103   
C10      C      0.229510000000     0.285960000000     0.163150000000     0.474005   
C11      C      0.276200000000     0.209880000000     0.041870000000     0.450625   
C12      C      0.160210000000     0.329540000000     0.039270000000     0.45941    
C13      C      0.264430000000     0.233040000000     0.409540000000     0.468068   
C14      C      0.251180000000     0.225020000000     0.662580000000     0.469468   
C15      C      0.326100000000     0.161120000000     0.541790000000     0.454215   
C16      C      0.208050000000     0.277940000000     0.532680000000     0.438579   
C17      C      0.215500000000     0.191340000000     0.769160000000    -0.0115341  
C18      C      0.252050000000     0.275450000000     0.762740000000    -0.0216215  
C19      C      0.176500000000     0.207440000000     0.813550000000    -0.0114619  
C20      C      0.208080000000     0.289190000000     0.794540000000     0.0345768  
C21      C      0.296750000000     0.270590000000     0.303150000000    -0.0119118  
C22      C      0.214320000000     0.231020000000     0.309240000000    -0.0223822  
C23      C      0.278900000000     0.310450000000     0.261960000000    -0.0109242  
C24      C      0.198700000000     0.275920000000     0.282230000000     0.0367735  
C25      C      0.139910000000     0.368380000000     0.596680000000    -0.0127731  
C26      C      0.097630000000     0.332360000000     0.495810000000    -0.0242972  
C27      C      0.184960000000     0.352290000000     0.570400000000    -0.00985419 
C28      C      0.141470000000     0.310260000000     0.474570000000     0.0293047  
C29      C      0.406920000000     0.342840000000     0.635100000000     0.00121119 
C30      C      0.433760000000     0.320880000000     0.518130000000    -0.0130133  
C31      C      0.359900000000     0.314550000000     0.621460000000    -0.0319772  
C32      C      0.398340000000     0.278930000000     0.529750000000     0.0221027  
C33      C      0.382330000000     0.055300000000     0.498490000000    -0.0132106  
C34      C      0.411640000000     0.084410000000     0.611220000000    -0.0244123  
C35      C      0.365340000000     0.102470000000     0.483570000000    -0.0120506  
C36      C      0.396370000000     0.132860000000     0.596290000000     0.0311001  
C37      C      0.139870000000     0.079150000000     0.447550000000     0.000745282
C38      C      0.163020000000     0.054640000000     0.565570000000    -0.0139136  
C39      C      0.171600000000     0.124920000000     0.456370000000    -0.030622   
C40      C      0.206510000000     0.086790000000     0.549120000000     0.0240165  
C41      C      0.083180000000     0.347360000000     0.074800000000    -0.00437278 
C42      C      0.146830000000     0.412500000000     0.050690000000    -0.0185765  
C43      C      0.047390000000     0.378550000000     0.047200000000    -0.0180849  
C44      C      0.112360000000     0.439950000000     0.013400000000     0.0275558  
C45      C      0.304500000000     0.385970000000     0.056050000000    -0.0285437  
C46      C      0.339050000000     0.342850000000     0.967710000000    -0.0257574  
C47      C      0.325450000000     0.431800000000     0.027830000000     0.00151005 
C48      C      0.366280000000     0.388150000000     0.939870000000     0.0351144  
C49      C      0.355030000000     0.189490000000     0.019480000000    -0.00960384 
C50      C      0.301050000000     0.139720000000     0.096050000000    -0.0211318  
C51      C      0.373440000000     0.145710000000     0.991890000000    -0.0135078  
C52      C      0.323490000000     0.096300000000     0.072910000000     0.0274504  
C53      C      0.093190000000     0.131950000000     0.151860000000    -0.00582437 
C54      C      0.048960000000     0.177900000000     0.068770000000    -0.00647926 
C55      C      0.139130000000     0.159410000000     0.127580000000    -0.0190023  
C56      C      0.088790000000     0.215200000000     0.086200000000    -0.0103829  
C57      C      0.404860000000     0.579450000000     0.044240000000     0.390433   
C58      C      0.033770000000     0.960770000000     0.043710000000     0.391005   
C59      C      0.406730000000     0.954180000000     0.009540000000     0.40889    
C60      C      0.031140000000     0.593130000000     0.080530000000     0.403483   
C61      C      0.078400000000     0.906800000000     0.541200000000     0.391742   
C62      C      0.453770000000     0.529570000000     0.546300000000     0.393401   
C63      C      0.085710000000     0.533460000000     0.523360000000     0.416012   
C64      C      0.454010000000     0.898270000000     0.562580000000     0.416991   
C65      C      0.201920000000     0.756050000000     0.912660000000     0.4721     
C66      C      0.229510000000     0.785960000000     0.163150000000     0.474004   
C67      C      0.276200000000     0.709880000000     0.041870000000     0.450625   
C68      C      0.160220000000     0.829540000000     0.039270000000     0.45948    
C69      C      0.264440000000     0.733040000000     0.409540000000     0.46806    
C70      C      0.251180000000     0.725020000000     0.662580000000     0.469484   
C71      C      0.326100000000     0.661120000000     0.541790000000     0.454217   
C72      C      0.208050000000     0.777940000000     0.532680000000     0.438582   
C73      C      0.215500000000     0.691350000000     0.769160000000    -0.0114109  
C74      C      0.252050000000     0.775450000000     0.762740000000    -0.0216619  
C75      C      0.176500000000     0.707440000000     0.813550000000    -0.0115086  
C76      C      0.208080000000     0.789190000000     0.794540000000     0.0345859  
C77      C      0.296750000000     0.770590000000     0.303150000000    -0.0119331  
C78      C      0.214310000000     0.731020000000     0.309240000000    -0.0224706  
C79      C      0.278900000000     0.810450000000     0.261960000000    -0.0109142  
C80      C      0.198700000000     0.775920000000     0.282230000000     0.036807   
C81      C      0.139910000000     0.868380000000     0.596680000000    -0.0127722  
C82      C      0.097630000000     0.832360000000     0.495810000000    -0.0242955  
C83      C      0.184960000000     0.852290000000     0.570400000000    -0.00985446 
C84      C      0.141470000000     0.810260000000     0.474570000000     0.0293045  
C85      C      0.406920000000     0.842840000000     0.635110000000     0.00115173 
C86      C      0.433760000000     0.820870000000     0.518130000000    -0.0130539  
C87      C      0.359900000000     0.814540000000     0.621460000000    -0.0319536  
C88      C      0.398340000000     0.778930000000     0.529750000000     0.0221238  
C89      C      0.382330000000     0.555300000000     0.498490000000    -0.0132155  
C90      C      0.411640000000     0.584410000000     0.611220000000    -0.024397   
C91      C      0.365340000000     0.602470000000     0.483570000000    -0.0120498  
C92      C      0.396360000000     0.632860000000     0.596290000000     0.03113    
C93      C      0.139870000000     0.579150000000     0.447550000000     0.000747907
C94      C      0.163020000000     0.554650000000     0.565570000000    -0.0138761  
C95      C      0.171600000000     0.624920000000     0.456370000000    -0.0306239  
C96      C      0.206510000000     0.586790000000     0.549120000000     0.0240023  
C97      C      0.083180000000     0.847360000000     0.074800000000    -0.00434536 
C98      C      0.146830000000     0.912500000000     0.050690000000    -0.0185805  
C99      C      0.047390000000     0.878540000000     0.047200000000    -0.0181424  
C100     C      0.112360000000     0.939950000000     0.013400000000     0.0275449  
C101     C      0.304500000000     0.885970000000     0.056050000000    -0.0285209  
C102     C      0.339050000000     0.842840000000     0.967710000000    -0.0258902  
C103     C      0.325450000000     0.931800000000     0.027830000000     0.00148846 
C104     C      0.366280000000     0.888150000000     0.939870000000     0.0351487  
C105     C      0.355030000000     0.689490000000     0.019480000000    -0.00960438 
C106     C      0.301050000000     0.639720000000     0.096050000000    -0.0211022  
C107     C      0.373440000000     0.645710000000     0.991890000000    -0.0135058  
C108     C      0.323490000000     0.596300000000     0.072910000000     0.0274423  
C109     C      0.093190000000     0.631950000000     0.151860000000    -0.00583196 
C110     C      0.048960000000     0.677900000000     0.068770000000    -0.00647878 
C111     C      0.139130000000     0.659410000000     0.127580000000    -0.0189818  
C112     C      0.088790000000     0.715200000000     0.086200000000    -0.010386   
C113     C      0.904860000000     0.079450000000     0.044240000000     0.390387   
C114     C      0.533770000000     0.460770000000     0.043710000000     0.391005   
C115     C      0.906730000000     0.454180000000     0.009540000000     0.408897   
C116     C      0.531140000000     0.093130000000     0.080530000000     0.403478   
C117     C      0.578400000000     0.406800000000     0.541200000000     0.391739   
C118     C      0.953760000000     0.029570000000     0.546300000000     0.393356   
C119     C      0.585710000000     0.033460000000     0.523360000000     0.416016   
C120     C      0.954020000000     0.398270000000     0.562580000000     0.417016   
C121     C      0.701920000000     0.256050000000     0.912660000000     0.472097   
C122     C      0.729510000000     0.285960000000     0.163150000000     0.474001   
C123     C      0.776200000000     0.209880000000     0.041870000000     0.450621   
C124     C      0.660210000000     0.329540000000     0.039270000000     0.459329   
C125     C      0.764430000000     0.233040000000     0.409540000000     0.468067   
C126     C      0.751180000000     0.225020000000     0.662580000000     0.469467   
C127     C      0.826100000000     0.161120000000     0.541790000000     0.454217   
C128     C      0.708060000000     0.277940000000     0.532680000000     0.438634   
C129     C      0.715500000000     0.191340000000     0.769160000000    -0.0115341  
C130     C      0.752050000000     0.275450000000     0.762740000000    -0.0216317  
C131     C      0.676500000000     0.207440000000     0.813550000000    -0.0114623  
C132     C      0.708080000000     0.289190000000     0.794540000000     0.0345777  
C133     C      0.796750000000     0.270590000000     0.303150000000    -0.011912   
C134     C      0.714320000000     0.231020000000     0.309240000000    -0.0223831  
C135     C      0.778900000000     0.310450000000     0.261960000000    -0.0109242  
C136     C      0.698700000000     0.275920000000     0.282230000000     0.0367754  
C137     C      0.639910000000     0.368380000000     0.596680000000    -0.01277    
C138     C      0.597630000000     0.332360000000     0.495810000000    -0.024295   
C139     C      0.684960000000     0.352290000000     0.570400000000    -0.00986426 
C140     C      0.641470000000     0.310260000000     0.474570000000     0.0292997  
C141     C      0.906920000000     0.342840000000     0.635100000000     0.00121356 
C142     C      0.933760000000     0.320880000000     0.518130000000    -0.0130192  
C143     C      0.859900000000     0.314550000000     0.621460000000    -0.0319765  
C144     C      0.898340000000     0.278930000000     0.529750000000     0.0221041  
C145     C      0.882330000000     0.055300000000     0.498490000000    -0.0132115  
C146     C      0.911640000000     0.084410000000     0.611220000000    -0.0244049  
C147     C      0.865340000000     0.102470000000     0.483570000000    -0.0120496  
C148     C      0.896360000000     0.132860000000     0.596290000000     0.0311365  
C149     C      0.639870000000     0.079150000000     0.447550000000     0.000744739
C150     C      0.663020000000     0.054640000000     0.565570000000    -0.0139102  
C151     C      0.671600000000     0.124920000000     0.456370000000    -0.0306219  
C152     C      0.706510000000     0.086790000000     0.549120000000     0.0240154  
C153     C      0.583180000000     0.347360000000     0.074800000000    -0.00436907 
C154     C      0.646830000000     0.412500000000     0.050690000000    -0.01858    
C155     C      0.547390000000     0.378550000000     0.047200000000    -0.0180861  
C156     C      0.612360000000     0.439950000000     0.013400000000     0.0275564  
C157     C      0.804500000000     0.385970000000     0.056050000000    -0.0285272  
C158     C      0.839050000000     0.342850000000     0.967710000000    -0.0257964  
C159     C      0.825450000000     0.431800000000     0.027830000000     0.00150504 
C160     C      0.866280000000     0.388150000000     0.939870000000     0.0351198  
C161     C      0.855030000000     0.189490000000     0.019480000000    -0.00960412 
C162     C      0.801050000000     0.139720000000     0.096050000000    -0.0211332  
C163     C      0.873440000000     0.145710000000     0.991890000000    -0.0135073  
C164     C      0.823490000000     0.096300000000     0.072910000000     0.0274543  
C165     C      0.593190000000     0.131950000000     0.151860000000    -0.00582442 
C166     C      0.548960000000     0.177900000000     0.068770000000    -0.0064743  
C167     C      0.639130000000     0.159410000000     0.127580000000    -0.0190033  
C168     C      0.588790000000     0.215200000000     0.086200000000    -0.0104022  
C169     C      0.904860000000     0.579450000000     0.044240000000     0.390397   
C170     C      0.533770000000     0.960770000000     0.043710000000     0.391074   
C171     C      0.906730000000     0.954180000000     0.009540000000     0.408897   
C172     C      0.531140000000     0.593130000000     0.080530000000     0.403483   
C173     C      0.578400000000     0.906800000000     0.541200000000     0.391738   
C174     C      0.953760000000     0.529570000000     0.546300000000     0.393368   
C175     C      0.585710000000     0.533460000000     0.523360000000     0.416038   
C176     C      0.954010000000     0.898270000000     0.562580000000     0.41696    
C177     C      0.701920000000     0.756050000000     0.912660000000     0.4721     
C178     C      0.729510000000     0.785960000000     0.163150000000     0.474004   
C179     C      0.776200000000     0.709880000000     0.041870000000     0.450625   
C180     C      0.660220000000     0.829540000000     0.039270000000     0.45948    
C181     C      0.764440000000     0.733040000000     0.409540000000     0.468056   
C182     C      0.751180000000     0.725020000000     0.662580000000     0.469483   
C183     C      0.826100000000     0.661120000000     0.541790000000     0.454214   
C184     C      0.708050000000     0.777940000000     0.532680000000     0.438726   
C185     C      0.715500000000     0.691350000000     0.769160000000    -0.0114109  
C186     C      0.752050000000     0.775450000000     0.762740000000    -0.0216622  
C187     C      0.676500000000     0.707440000000     0.813550000000    -0.0115086  
C188     C      0.708080000000     0.789190000000     0.794540000000     0.034586   
C189     C      0.796750000000     0.770590000000     0.303150000000    -0.0119595  
C190     C      0.714310000000     0.731020000000     0.309240000000    -0.0224702  
C191     C      0.778900000000     0.810450000000     0.261960000000    -0.0109065  
C192     C      0.698700000000     0.775920000000     0.282230000000     0.0368075  
C193     C      0.639910000000     0.868380000000     0.596680000000    -0.0127895  
C194     C      0.597630000000     0.832360000000     0.495810000000    -0.0242982  
C195     C      0.684950000000     0.852290000000     0.570400000000    -0.00980649 
C196     C      0.641470000000     0.810260000000     0.474570000000     0.0293094  
C197     C      0.906920000000     0.842840000000     0.635110000000     0.00114908 
C198     C      0.933760000000     0.820870000000     0.518130000000    -0.0130548  
C199     C      0.859900000000     0.814540000000     0.621460000000    -0.031954   
C200     C      0.898340000000     0.778930000000     0.529750000000     0.0221232  
C201     C      0.882330000000     0.555300000000     0.498490000000    -0.0132106  
C202     C      0.911640000000     0.584410000000     0.611220000000    -0.0244103  
C203     C      0.865340000000     0.602470000000     0.483570000000    -0.0120497  
C204     C      0.896360000000     0.632860000000     0.596290000000     0.0311342  
C205     C      0.639870000000     0.579150000000     0.447550000000     0.000748496
C206     C      0.663020000000     0.554650000000     0.565570000000    -0.0138718  
C207     C      0.671600000000     0.624920000000     0.456370000000    -0.0306242  
C208     C      0.706510000000     0.586790000000     0.549120000000     0.024001   
C209     C      0.583180000000     0.847360000000     0.074800000000    -0.0043493  
C210     C      0.646830000000     0.912500000000     0.050690000000    -0.0185809  
C211     C      0.547390000000     0.878540000000     0.047200000000    -0.0181374  
C212     C      0.612360000000     0.939950000000     0.013400000000     0.0275469  
C213     C      0.804500000000     0.885970000000     0.056050000000    -0.0285213  
C214     C      0.839050000000     0.842840000000     0.967710000000    -0.0258914  
C215     C      0.825450000000     0.931800000000     0.027830000000     0.00148931 
C216     C      0.866280000000     0.888150000000     0.939870000000     0.0351534  
C217     C      0.855030000000     0.689490000000     0.019480000000    -0.00960288 
C218     C      0.801050000000     0.639720000000     0.096050000000    -0.0211018  
C219     C      0.873440000000     0.645710000000     0.991890000000    -0.0135104  
C220     C      0.823490000000     0.596300000000     0.072910000000     0.0274419  
C221     C      0.593190000000     0.631950000000     0.151860000000    -0.00583176 
C222     C      0.548960000000     0.677900000000     0.068770000000    -0.00647888 
C223     C      0.639130000000     0.659410000000     0.127580000000    -0.018982   
C224     C      0.588790000000     0.715200000000     0.086200000000    -0.0103859  
Cu1      Cu     0.978740000000     0.530810000000     0.984620000000     0.833116   
Cu2      Cu     0.462810000000     0.012650000000     0.104710000000     0.840165   
Cu3      Cu     0.511540000000     0.964640000000     0.481520000000     0.857902   
Cu4      Cu     0.022070000000     0.473030000000     0.605190000000     0.85691    
Cu5      Cu     0.253190000000     0.303870000000     0.024080000000     1.17568    
Cu6      Cu     0.181960000000     0.235790000000     0.051240000000     1.16628    
Cu7      Cu     0.302060000000     0.254360000000     0.544770000000     1.1366     
Cu8      Cu     0.234370000000     0.183170000000     0.528920000000     1.13632    
Cu9      Cu     0.978740000000     0.030810000000     0.984620000000     0.833051   
Cu10     Cu     0.462810000000     0.512650000000     0.104710000000     0.840286   
Cu11     Cu     0.511550000000     0.464650000000     0.481520000000     0.857872   
Cu12     Cu     0.022070000000     0.973030000000     0.605190000000     0.85698    
Cu13     Cu     0.253190000000     0.803870000000     0.024080000000     1.17563    
Cu14     Cu     0.181960000000     0.735790000000     0.051240000000     1.16628    
Cu15     Cu     0.302060000000     0.754360000000     0.544770000000     1.13662    
Cu16     Cu     0.234370000000     0.683170000000     0.528920000000     1.1363     
Cu17     Cu     0.478740000000     0.530810000000     0.984620000000     0.833027   
Cu18     Cu     0.962810000000     0.012650000000     0.104710000000     0.840298   
Cu19     Cu     0.011540000000     0.964640000000     0.481520000000     0.857871   
Cu20     Cu     0.522070000000     0.473030000000     0.605190000000     0.856913   
Cu21     Cu     0.753190000000     0.303870000000     0.024080000000     1.17573    
Cu22     Cu     0.681960000000     0.235790000000     0.051240000000     1.16615    
Cu23     Cu     0.802060000000     0.254360000000     0.544770000000     1.13662    
Cu24     Cu     0.734370000000     0.183170000000     0.528920000000     1.13631    
Cu25     Cu     0.478740000000     0.030810000000     0.984620000000     0.833052   
Cu26     Cu     0.962810000000     0.512650000000     0.104710000000     0.840225   
Cu27     Cu     0.011540000000     0.464650000000     0.481520000000     0.857872   
Cu28     Cu     0.522070000000     0.973030000000     0.605190000000     0.856859   
Cu29     Cu     0.753190000000     0.803870000000     0.024080000000     1.17563    
Cu30     Cu     0.681960000000     0.735790000000     0.051240000000     1.16628    
Cu31     Cu     0.802060000000     0.754360000000     0.544770000000     1.13655    
Cu32     Cu     0.734370000000     0.683170000000     0.528920000000     1.13632    
H1       H      0.278200000000     0.271790000000     0.802860000000     0.0468456  
H2       H      0.241020000000     0.177750000000     0.803440000000     0.0395358  
H3       H      0.165500000000     0.180140000000     0.851660000000     0.0458546  
H4       H      0.266800000000     0.303210000000     0.727360000000     0.0482314  
H5       H      0.181850000000     0.288550000000     0.753410000000     0.0321091  
H6       H      0.200790000000     0.161970000000     0.736620000000     0.0454454  
H7       H      0.146310000000     0.211180000000     0.780400000000     0.0403879  
H8       H      0.218780000000     0.206980000000     0.266450000000     0.0444852  
H9       H      0.310550000000     0.246530000000     0.266590000000     0.0381265  
H10      H      0.305260000000     0.323480000000     0.223700000000     0.0421853  
H11      H      0.187600000000     0.213320000000     0.343650000000     0.0486282  
H12      H      0.199720000000     0.300670000000     0.325480000000     0.0318675  
H13      H      0.326100000000     0.285130000000     0.335640000000     0.044369   
H14      H      0.274900000000     0.339590000000     0.297300000000     0.0389092  
H15      H      0.073660000000     0.306240000000     0.523880000000     0.0431781  
H16      H      0.123730000000     0.342210000000     0.633320000000     0.043206   
H17      H      0.207760000000     0.347510000000     0.614450000000     0.0413185  
H18      H      0.078830000000     0.341510000000     0.449570000000     0.0463402  
H19      H      0.158550000000     0.332770000000     0.434100000000     0.0309898  
H20      H      0.148240000000     0.401970000000     0.623870000000     0.0405385  
H21      H      0.202880000000     0.380090000000     0.537790000000     0.043001   
H22      H      0.428610000000     0.336500000000     0.467480000000     0.052546   
H23      H      0.401890000000     0.373700000000     0.666610000000     0.040061   
H24      H      0.331940000000     0.336740000000     0.630980000000     0.045238   
H25      H      0.469300000000     0.310230000000     0.518770000000     0.0358713  
H26      H      0.411010000000     0.256380000000     0.569630000000     0.0330249  
H27      H      0.429070000000     0.321110000000     0.664180000000     0.034599   
H28      H      0.356070000000     0.285070000000     0.657760000000     0.0411086  
H29      H      0.384110000000     0.063070000000     0.640490000000     0.046355   
H30      H      0.352620000000     0.031620000000     0.518630000000     0.0399759  
H31      H      0.333230000000     0.096300000000     0.452760000000     0.0428611  
H32      H      0.443310000000     0.089010000000     0.643290000000     0.0481923  
H33      H      0.426720000000     0.155310000000     0.575540000000     0.0333569  
H34      H      0.392900000000     0.040060000000     0.450140000000     0.0440061  
H35      H      0.391760000000     0.122840000000     0.451430000000     0.0392105  
H36      H      0.148860000000     0.063630000000     0.615730000000     0.0529369  
H37      H      0.108720000000     0.085740000000     0.418070000000     0.0401539  
H38      H      0.151610000000     0.154510000000     0.445890000000     0.0463358  
H39      H      0.171090000000     0.018040000000     0.568750000000     0.0378247  
H40      H      0.226750000000     0.071000000000     0.509240000000     0.0306336  
H41      H      0.158380000000     0.054410000000     0.417930000000     0.0343647  
H42      H      0.199920000000     0.125510000000     0.418610000000     0.0398916  
H43      H      0.150170000000     0.424350000000     0.104240000000     0.0448962  
H44      H      0.083060000000     0.349630000000     0.130950000000     0.0362278  
H45      H      0.015580000000     0.373350000000     0.078780000000     0.0403168  
H46      H      0.181520000000     0.419570000000     0.026520000000     0.0465589  
H47      H      0.111490000000     0.429260000000     0.959370000000     0.03758    
H48      H      0.078210000000     0.309490000000     0.060320000000     0.024096   
H49      H      0.037280000000     0.365940000000     0.995620000000     0.0394563  
H50      H      0.360010000000     0.325640000000     0.005200000000     0.0391435  
H51      H      0.327900000000     0.372830000000     0.094210000000     0.0456144  
H52      H      0.330060000000     0.457990000000     0.069200000000     0.039788   
H53      H      0.330070000000     0.318050000000     0.925500000000     0.0360571  
H54      H      0.346820000000     0.399830000000     0.895920000000     0.0339151  
H55      H      0.271480000000     0.391120000000     0.081230000000     0.0412716  
H56      H      0.300900000000     0.444230000000     0.990750000000     0.0381963  
H57      H      0.316770000000     0.152570000000     0.144890000000     0.0426697  
H58      H      0.378550000000     0.204400000000     0.060280000000     0.0395005  
H59      H      0.409690000000     0.155390000000     0.974600000000     0.0401497  
H60      H      0.263560000000     0.129480000000     0.105810000000     0.0451501  
H61      H      0.301020000000     0.079720000000     0.032070000000     0.0317452  
H62      H      0.355890000000     0.215560000000     0.978060000000     0.0400611  
H63      H      0.352380000000     0.133150000000     0.947170000000     0.0430564  
H64      H      0.045540000000     0.174220000000     0.012930000000     0.0461121  
H65      H      0.099080000000     0.095760000000     0.165200000000     0.0384553  
H66      H      0.161680000000     0.134620000000     0.106400000000     0.0383232  
H67      H      0.015840000000     0.188250000000     0.088240000000     0.0308665  
H68      H      0.086380000000     0.225860000000     0.140010000000     0.0350489  
H69      H      0.081490000000     0.148770000000     0.198320000000     0.0360786  
H70      H      0.157480000000     0.177270000000     0.171180000000     0.0334705  
H71      H      0.278200000000     0.771790000000     0.802860000000     0.0468549  
H72      H      0.241020000000     0.677750000000     0.803440000000     0.0395031  
H73      H      0.165500000000     0.680140000000     0.851660000000     0.0458643  
H74      H      0.266800000000     0.803210000000     0.727360000000     0.0482399  
H75      H      0.181850000000     0.788550000000     0.753410000000     0.0321055  
H76      H      0.200790000000     0.661970000000     0.736620000000     0.0454112  
H77      H      0.146310000000     0.711180000000     0.780400000000     0.040397   
H78      H      0.218780000000     0.706990000000     0.266450000000     0.0445164  
H79      H      0.310550000000     0.746530000000     0.266590000000     0.038128   
H80      H      0.305260000000     0.823480000000     0.223700000000     0.0421832  
H81      H      0.187600000000     0.713320000000     0.343650000000     0.0486596  
H82      H      0.199720000000     0.800670000000     0.325480000000     0.0318643  
H83      H      0.326100000000     0.785120000000     0.335640000000     0.0443751  
H84      H      0.274900000000     0.839590000000     0.297300000000     0.038909   
H85      H      0.073660000000     0.806240000000     0.523880000000     0.0431786  
H86      H      0.123730000000     0.842210000000     0.633320000000     0.0432065  
H87      H      0.207760000000     0.847510000000     0.614450000000     0.0413185  
H88      H      0.078830000000     0.841510000000     0.449570000000     0.0463401  
H89      H      0.158550000000     0.832770000000     0.434100000000     0.0309913  
H90      H      0.148240000000     0.901970000000     0.623870000000     0.0405382  
H91      H      0.202880000000     0.880090000000     0.537790000000     0.0430015  
H92      H      0.428610000000     0.836500000000     0.467480000000     0.0525573  
H93      H      0.401890000000     0.873700000000     0.666610000000     0.0400826  
H94      H      0.331940000000     0.836740000000     0.630980000000     0.0452298  
H95      H      0.469300000000     0.810230000000     0.518770000000     0.035882   
H96      H      0.411010000000     0.756380000000     0.569630000000     0.0330206  
H97      H      0.429070000000     0.821110000000     0.664180000000     0.0346158  
H98      H      0.356070000000     0.785070000000     0.657760000000     0.041108   
H99      H      0.384110000000     0.563070000000     0.640490000000     0.0463511  
H100     H      0.352620000000     0.531620000000     0.518630000000     0.0399777  
H101     H      0.333230000000     0.596300000000     0.452760000000     0.0428596  
H102     H      0.443320000000     0.589010000000     0.643300000000     0.0481801  
H103     H      0.426720000000     0.655310000000     0.575540000000     0.0333486  
H104     H      0.392900000000     0.540060000000     0.450140000000     0.0440095  
H105     H      0.391760000000     0.622840000000     0.451430000000     0.0392083  
H106     H      0.148860000000     0.563630000000     0.615730000000     0.0529266  
H107     H      0.108720000000     0.585740000000     0.418070000000     0.0401533  
H108     H      0.151610000000     0.654510000000     0.445890000000     0.0463352  
H109     H      0.171090000000     0.518040000000     0.568750000000     0.0378106  
H110     H      0.226750000000     0.571000000000     0.509240000000     0.030636   
H111     H      0.158380000000     0.554410000000     0.417930000000     0.0343634  
H112     H      0.199920000000     0.625510000000     0.418610000000     0.0398897  
H113     H      0.150170000000     0.924350000000     0.104240000000     0.0448983  
H114     H      0.083060000000     0.849630000000     0.130950000000     0.036223   
H115     H      0.015580000000     0.873350000000     0.078780000000     0.0403351  
H116     H      0.181520000000     0.919570000000     0.026520000000     0.0465612  
H117     H      0.111490000000     0.929260000000     0.959370000000     0.0375811  
H118     H      0.078210000000     0.809490000000     0.060320000000     0.024091   
H119     H      0.037280000000     0.865940000000     0.995620000000     0.0394725  
H120     H      0.360010000000     0.825640000000     0.005200000000     0.0391774  
H121     H      0.327900000000     0.872830000000     0.094210000000     0.0456061  
H122     H      0.330060000000     0.957980000000     0.069200000000     0.0397968  
H123     H      0.330070000000     0.818060000000     0.925500000000     0.0360961  
H124     H      0.346820000000     0.899830000000     0.895920000000     0.0339076  
H125     H      0.271480000000     0.891120000000     0.081230000000     0.0412687  
H126     H      0.300900000000     0.944230000000     0.990750000000     0.038204   
H127     H      0.316770000000     0.652570000000     0.144900000000     0.0426565  
H128     H      0.378550000000     0.704400000000     0.060280000000     0.0394998  
H129     H      0.409690000000     0.655390000000     0.974600000000     0.0401428  
H130     H      0.263560000000     0.629470000000     0.105810000000     0.0451373  
H131     H      0.301020000000     0.579720000000     0.032070000000     0.0317469  
H132     H      0.355890000000     0.715560000000     0.978060000000     0.0400609  
H133     H      0.352380000000     0.633150000000     0.947170000000     0.0430573  
H134     H      0.045540000000     0.674220000000     0.012930000000     0.0461103  
H135     H      0.099080000000     0.595760000000     0.165200000000     0.038456   
H136     H      0.161680000000     0.634610000000     0.106400000000     0.0383135  
H137     H      0.015840000000     0.688250000000     0.088240000000     0.0308641  
H138     H      0.086380000000     0.725860000000     0.140010000000     0.0350493  
H139     H      0.081490000000     0.648770000000     0.198320000000     0.0360795  
H140     H      0.157480000000     0.677270000000     0.171180000000     0.0334658  
H141     H      0.778200000000     0.271790000000     0.802860000000     0.0468499  
H142     H      0.741020000000     0.177750000000     0.803440000000     0.0395363  
H143     H      0.665500000000     0.180140000000     0.851660000000     0.045855   
H144     H      0.766790000000     0.303210000000     0.727360000000     0.0482364  
H145     H      0.681850000000     0.288550000000     0.753410000000     0.0321087  
H146     H      0.700790000000     0.161970000000     0.736620000000     0.0454458  
H147     H      0.646310000000     0.211180000000     0.780400000000     0.0403886  
H148     H      0.718780000000     0.206980000000     0.266450000000     0.0444859  
H149     H      0.810550000000     0.246530000000     0.266590000000     0.0381273  
H150     H      0.805260000000     0.323480000000     0.223700000000     0.0421862  
H151     H      0.687600000000     0.213320000000     0.343650000000     0.0486283  
H152     H      0.699720000000     0.300670000000     0.325480000000     0.0318666  
H153     H      0.826100000000     0.285130000000     0.335640000000     0.0443699  
H154     H      0.774900000000     0.339590000000     0.297300000000     0.0389095  
H155     H      0.573660000000     0.306240000000     0.523880000000     0.0431808  
H156     H      0.623730000000     0.342210000000     0.633320000000     0.0432073  
H157     H      0.707760000000     0.347510000000     0.614450000000     0.0413221  
H158     H      0.578830000000     0.341510000000     0.449570000000     0.0463418  
H159     H      0.658550000000     0.332770000000     0.434100000000     0.0309901  
H160     H      0.648240000000     0.401970000000     0.623870000000     0.0405388  
H161     H      0.702880000000     0.380090000000     0.537790000000     0.0430033  
H162     H      0.928610000000     0.336500000000     0.467480000000     0.0525506  
H163     H      0.901890000000     0.373700000000     0.666610000000     0.0400698  
H164     H      0.831940000000     0.336740000000     0.630980000000     0.0452414  
H165     H      0.969300000000     0.310230000000     0.518770000000     0.0358708  
H166     H      0.911010000000     0.256380000000     0.569630000000     0.0330249  
H167     H      0.929070000000     0.321110000000     0.664180000000     0.0345977  
H168     H      0.856070000000     0.285070000000     0.657760000000     0.0411092  
H169     H      0.884110000000     0.063070000000     0.640490000000     0.0463524  
H170     H      0.852620000000     0.031620000000     0.518630000000     0.0399749  
H171     H      0.833230000000     0.096300000000     0.452760000000     0.0428611  
H172     H      0.943320000000     0.089010000000     0.643290000000     0.0481904  
H173     H      0.926720000000     0.155310000000     0.575540000000     0.0333504  
H174     H      0.892900000000     0.040060000000     0.450140000000     0.0440068  
H175     H      0.891760000000     0.122840000000     0.451430000000     0.0392113  
H176     H      0.648860000000     0.063630000000     0.615730000000     0.0529419  
H177     H      0.608720000000     0.085740000000     0.418070000000     0.0401542  
H178     H      0.651610000000     0.154510000000     0.445890000000     0.0463362  
H179     H      0.671090000000     0.018040000000     0.568750000000     0.0378284  
H180     H      0.726750000000     0.071000000000     0.509240000000     0.0306339  
H181     H      0.658380000000     0.054410000000     0.417930000000     0.0343654  
H182     H      0.699920000000     0.125510000000     0.418610000000     0.0398919  
H183     H      0.650170000000     0.424350000000     0.104240000000     0.0448973  
H184     H      0.583060000000     0.349630000000     0.130950000000     0.0362273  
H185     H      0.515580000000     0.373350000000     0.078780000000     0.0403175  
H186     H      0.681520000000     0.419570000000     0.026520000000     0.0465619  
H187     H      0.611490000000     0.429260000000     0.959370000000     0.0375809  
H188     H      0.578210000000     0.309490000000     0.060320000000     0.0240874  
H189     H      0.537280000000     0.365940000000     0.995620000000     0.0394573  
H190     H      0.860010000000     0.325640000000     0.005200000000     0.0391521  
H191     H      0.827900000000     0.372830000000     0.094210000000     0.0456099  
H192     H      0.830060000000     0.457990000000     0.069200000000     0.0397898  
H193     H      0.830070000000     0.318050000000     0.925500000000     0.0360689  
H194     H      0.846820000000     0.399830000000     0.895920000000     0.033915   
H195     H      0.771480000000     0.391120000000     0.081230000000     0.041272   
H196     H      0.800900000000     0.444230000000     0.990750000000     0.0381998  
H197     H      0.816770000000     0.152570000000     0.144890000000     0.042671   
H198     H      0.878550000000     0.204400000000     0.060280000000     0.0395025  
H199     H      0.909690000000     0.155390000000     0.974600000000     0.0401526  
H200     H      0.763560000000     0.129480000000     0.105810000000     0.0451514  
H201     H      0.801020000000     0.079720000000     0.032070000000     0.0317444  
H202     H      0.855890000000     0.215560000000     0.978060000000     0.0400621  
H203     H      0.852380000000     0.133150000000     0.947170000000     0.0430567  
H204     H      0.545540000000     0.174220000000     0.012930000000     0.0461099  
H205     H      0.599080000000     0.095760000000     0.165200000000     0.0384567  
H206     H      0.661680000000     0.134620000000     0.106400000000     0.0383255  
H207     H      0.515840000000     0.188250000000     0.088240000000     0.0308641  
H208     H      0.586380000000     0.225860000000     0.140010000000     0.0350528  
H209     H      0.581490000000     0.148770000000     0.198320000000     0.0360788  
H210     H      0.657480000000     0.177270000000     0.171180000000     0.0334725  
H211     H      0.778200000000     0.771790000000     0.802860000000     0.0468551  
H212     H      0.741020000000     0.677750000000     0.803440000000     0.0395033  
H213     H      0.665500000000     0.680140000000     0.851660000000     0.0458645  
H214     H      0.766800000000     0.803210000000     0.727360000000     0.0482397  
H215     H      0.681850000000     0.788550000000     0.753410000000     0.0321053  
H216     H      0.700790000000     0.661970000000     0.736620000000     0.0454113  
H217     H      0.646310000000     0.711180000000     0.780400000000     0.040397   
H218     H      0.718790000000     0.706990000000     0.266450000000     0.0445184  
H219     H      0.810550000000     0.746530000000     0.266590000000     0.0381348  
H220     H      0.805260000000     0.823480000000     0.223700000000     0.0421819  
H221     H      0.687600000000     0.713320000000     0.343650000000     0.0486602  
H222     H      0.699720000000     0.800670000000     0.325480000000     0.0318637  
H223     H      0.826090000000     0.785120000000     0.335640000000     0.0443881  
H224     H      0.774900000000     0.839590000000     0.297300000000     0.0389066  
H225     H      0.573660000000     0.806240000000     0.523880000000     0.0431793  
H226     H      0.623730000000     0.842210000000     0.633320000000     0.0432097  
H227     H      0.707760000000     0.847510000000     0.614450000000     0.0413048  
H228     H      0.578830000000     0.841510000000     0.449570000000     0.0463413  
H229     H      0.658550000000     0.832770000000     0.434100000000     0.0309894  
H230     H      0.648240000000     0.901970000000     0.623870000000     0.0405429  
H231     H      0.702880000000     0.880090000000     0.537790000000     0.042988   
H232     H      0.928610000000     0.836500000000     0.467480000000     0.0525588  
H233     H      0.901890000000     0.873700000000     0.666610000000     0.0400785  
H234     H      0.831940000000     0.836740000000     0.630980000000     0.0452276  
H235     H      0.969300000000     0.810230000000     0.518770000000     0.0358875  
H236     H      0.911010000000     0.756380000000     0.569630000000     0.0330228  
H237     H      0.929070000000     0.821110000000     0.664180000000     0.0346194  
H238     H      0.856070000000     0.785070000000     0.657760000000     0.0411093  
H239     H      0.884110000000     0.563070000000     0.640490000000     0.0463529  
H240     H      0.852620000000     0.531620000000     0.518630000000     0.0399758  
H241     H      0.833230000000     0.596300000000     0.452760000000     0.0428598  
H242     H      0.943310000000     0.589010000000     0.643300000000     0.0481891  
H243     H      0.926720000000     0.655310000000     0.575540000000     0.0333515  
H244     H      0.892900000000     0.540060000000     0.450140000000     0.0440075  
H245     H      0.891760000000     0.622840000000     0.451430000000     0.0392106  
H246     H      0.648860000000     0.563630000000     0.615730000000     0.0529308  
H247     H      0.608720000000     0.585740000000     0.418070000000     0.0401533  
H248     H      0.651610000000     0.654510000000     0.445890000000     0.0463353  
H249     H      0.671090000000     0.518040000000     0.568750000000     0.0378133  
H250     H      0.726750000000     0.571000000000     0.509240000000     0.0306361  
H251     H      0.658380000000     0.554410000000     0.417930000000     0.0343632  
H252     H      0.699920000000     0.625510000000     0.418610000000     0.0398894  
H253     H      0.650170000000     0.924350000000     0.104240000000     0.0448991  
H254     H      0.583070000000     0.849630000000     0.130950000000     0.0362277  
H255     H      0.515580000000     0.873350000000     0.078780000000     0.0403342  
H256     H      0.681520000000     0.919570000000     0.026520000000     0.0465614  
H257     H      0.611490000000     0.929260000000     0.959370000000     0.0375807  
H258     H      0.578210000000     0.809490000000     0.060320000000     0.024092   
H259     H      0.537280000000     0.865940000000     0.995620000000     0.0394711  
H260     H      0.860010000000     0.825640000000     0.005200000000     0.039179   
H261     H      0.827900000000     0.872830000000     0.094210000000     0.045607   
H262     H      0.830060000000     0.957980000000     0.069200000000     0.0397956  
H263     H      0.830070000000     0.818060000000     0.925500000000     0.0360969  
H264     H      0.846820000000     0.899830000000     0.895920000000     0.0339067  
H265     H      0.771480000000     0.891120000000     0.081230000000     0.0412689  
H266     H      0.800900000000     0.944230000000     0.990750000000     0.0382035  
H267     H      0.816770000000     0.652570000000     0.144900000000     0.0426569  
H268     H      0.878550000000     0.704400000000     0.060280000000     0.0395012  
H269     H      0.909690000000     0.655390000000     0.974600000000     0.0401457  
H270     H      0.763560000000     0.629470000000     0.105810000000     0.0451368  
H271     H      0.801020000000     0.579720000000     0.032070000000     0.0317464  
H272     H      0.855890000000     0.715560000000     0.978060000000     0.0400614  
H273     H      0.852380000000     0.633150000000     0.947170000000     0.0430563  
H274     H      0.545540000000     0.674220000000     0.012930000000     0.0461102  
H275     H      0.599080000000     0.595760000000     0.165200000000     0.0384561  
H276     H      0.661680000000     0.634610000000     0.106400000000     0.0383136  
H277     H      0.515840000000     0.688250000000     0.088240000000     0.030865   
H278     H      0.586380000000     0.725860000000     0.140010000000     0.0350495  
H279     H      0.581490000000     0.648770000000     0.198320000000     0.03608    
H280     H      0.657480000000     0.677270000000     0.171180000000     0.0334662  
N1       N      0.192370000000     0.252760000000     0.844730000000    -0.181105   
N2       N      0.240070000000     0.229990000000     0.729150000000    -0.17709    
N3       N      0.233550000000     0.294340000000     0.231450000000    -0.183064   
N4       N      0.259470000000     0.243600000000     0.342720000000    -0.177062   
N5       N      0.175670000000     0.309100000000     0.530700000000    -0.172669   
N6       N      0.107670000000     0.372920000000     0.540580000000    -0.162643   
N7       N      0.355270000000     0.296780000000     0.551460000000    -0.224313   
N8       N      0.429980000000     0.356020000000     0.570960000000    -0.17014    
N9       N      0.358560000000     0.130000000000     0.544980000000    -0.17821    
N10      N      0.419770000000     0.058860000000     0.548930000000    -0.161773   
N11      N      0.191160000000     0.130550000000     0.525000000000    -0.225518   
N12      N      0.127410000000     0.058120000000     0.513570000000    -0.169403   
N13      N      0.065310000000     0.428750000000     0.042430000000    -0.163744   
N14      N      0.130450000000     0.362560000000     0.050610000000    -0.176507   
N15      N      0.368630000000     0.424830000000     0.992780000000    -0.173239   
N16      N      0.296150000000     0.353440000000     0.999860000000    -0.229027   
N17      N      0.370570000000     0.108650000000     0.043360000000    -0.165103   
N18      N      0.308090000000     0.178510000000     0.047350000000    -0.17339    
N19      N      0.131290000000     0.193350000000     0.074580000000    -0.22562    
N20      N      0.057380000000     0.132930000000     0.099370000000    -0.165544   
N21      N      0.192370000000     0.752760000000     0.844730000000    -0.1811     
N22      N      0.240070000000     0.729980000000     0.729150000000    -0.177113   
N23      N      0.233550000000     0.794340000000     0.231450000000    -0.183069   
N24      N      0.259470000000     0.743600000000     0.342720000000    -0.177038   
N25      N      0.175670000000     0.809100000000     0.530700000000    -0.172669   
N26      N      0.107670000000     0.872920000000     0.540580000000    -0.162645   
N27      N      0.355270000000     0.796780000000     0.551460000000    -0.224317   
N28      N      0.429980000000     0.856020000000     0.570960000000    -0.170133   
N29      N      0.358560000000     0.630000000000     0.544980000000    -0.17822    
N30      N      0.419770000000     0.558860000000     0.548930000000    -0.161745   
N31      N      0.191160000000     0.630550000000     0.525000000000    -0.225515   
N32      N      0.127410000000     0.558120000000     0.513570000000    -0.169411   
N33      N      0.065310000000     0.928750000000     0.042440000000    -0.163733   
N34      N      0.130450000000     0.862560000000     0.050610000000    -0.17648    
N35      N      0.368630000000     0.924830000000     0.992780000000    -0.173238   
N36      N      0.296150000000     0.853450000000     0.999860000000    -0.228958   
N37      N      0.370570000000     0.608650000000     0.043360000000    -0.165111   
N38      N      0.308090000000     0.678510000000     0.047350000000    -0.173392   
N39      N      0.131290000000     0.693350000000     0.074580000000    -0.225622   
N40      N      0.057380000000     0.632930000000     0.099370000000    -0.165544   
N41      N      0.692370000000     0.252760000000     0.844730000000    -0.181104   
N42      N      0.740070000000     0.229990000000     0.729150000000    -0.177088   
N43      N      0.733550000000     0.294340000000     0.231450000000    -0.183063   
N44      N      0.759470000000     0.243600000000     0.342720000000    -0.177062   
N45      N      0.675670000000     0.309100000000     0.530700000000    -0.172634   
N46      N      0.607670000000     0.372920000000     0.540580000000    -0.162645   
N47      N      0.855270000000     0.296780000000     0.551460000000    -0.224313   
N48      N      0.929980000000     0.356020000000     0.570960000000    -0.170129   
N49      N      0.858560000000     0.130000000000     0.544980000000    -0.17822    
N50      N      0.919770000000     0.058860000000     0.548930000000    -0.161775   
N51      N      0.691160000000     0.130550000000     0.525000000000    -0.225516   
N52      N      0.627410000000     0.058120000000     0.513570000000    -0.169402   
N53      N      0.565310000000     0.428750000000     0.042430000000    -0.163744   
N54      N      0.630450000000     0.362560000000     0.050610000000    -0.176489   
N55      N      0.868630000000     0.424830000000     0.992780000000    -0.173239   
N56      N      0.796140000000     0.353440000000     0.999860000000    -0.229064   
N57      N      0.870570000000     0.108650000000     0.043360000000    -0.165104   
N58      N      0.808090000000     0.178510000000     0.047350000000    -0.173389   
N59      N      0.631290000000     0.193350000000     0.074580000000    -0.225605   
N60      N      0.557380000000     0.132930000000     0.099370000000    -0.165543   
N61      N      0.692370000000     0.752760000000     0.844730000000    -0.1811     
N62      N      0.740070000000     0.729980000000     0.729150000000    -0.177113   
N63      N      0.733550000000     0.794340000000     0.231450000000    -0.18307    
N64      N      0.759470000000     0.743600000000     0.342720000000    -0.177036   
N65      N      0.675670000000     0.809100000000     0.530700000000    -0.1727     
N66      N      0.607670000000     0.872920000000     0.540580000000    -0.162642   
N67      N      0.855270000000     0.796780000000     0.551460000000    -0.224312   
N68      N      0.929980000000     0.856020000000     0.570960000000    -0.170127   
N69      N      0.858560000000     0.630000000000     0.544980000000    -0.178219   
N70      N      0.919770000000     0.558860000000     0.548930000000    -0.161774   
N71      N      0.691160000000     0.630550000000     0.525000000000    -0.225517   
N72      N      0.627410000000     0.558120000000     0.513570000000    -0.169412   
N73      N      0.565310000000     0.928750000000     0.042440000000    -0.163742   
N74      N      0.630450000000     0.862560000000     0.050610000000    -0.176481   
N75      N      0.868630000000     0.924830000000     0.992780000000    -0.17324    
N76      N      0.796150000000     0.853450000000     0.999860000000    -0.228958   
N77      N      0.870570000000     0.608650000000     0.043360000000    -0.165103   
N78      N      0.808090000000     0.678510000000     0.047350000000    -0.173393   
N79      N      0.631290000000     0.693350000000     0.074580000000    -0.225622   
N80      N      0.557380000000     0.632930000000     0.099370000000    -0.165543   
O1       O      0.426580000000     0.072250000000     0.989290000000    -0.388355   
O2       O      0.029710000000     0.487380000000     0.992350000000    -0.383631   
O3       O      0.432140000000     0.474840000000     0.963140000000    -0.394537   
O4       O      0.021570000000     0.086230000000     0.017890000000    -0.396983   
O5       O      0.014460000000     0.064270000000     0.125950000000    -0.397143   
O6       O      0.413000000000     0.464730000000     0.071900000000    -0.407234   
O7       O      0.009030000000     0.464480000000     0.096760000000    -0.386443   
O8       O      0.415780000000     0.060170000000     0.099670000000    -0.384208   
O9       O      0.059480000000     0.418300000000     0.485850000000    -0.391956   
O10      O      0.463010000000     0.010230000000     0.490150000000    -0.391339   
O11      O      0.062220000000     0.017400000000     0.472150000000    -0.410394   
O12      O      0.464240000000     0.411850000000     0.502460000000    -0.416239   
O13      O      0.470460000000     0.420980000000     0.614360000000    -0.409182   
O14      O      0.073590000000     0.022000000000     0.583750000000    -0.413622   
O15      O      0.475250000000     0.020410000000     0.600620000000    -0.392624   
O16      O      0.068570000000     0.425520000000     0.597520000000    -0.392447   
O17      O      0.230610000000     0.288990000000     0.934570000000    -0.481793   
O18      O      0.260110000000     0.304040000000     0.122240000000    -0.474249   
O19      O      0.289180000000     0.251270000000     0.021960000000    -0.470251   
O20      O      0.203380000000     0.341850000000     0.037150000000    -0.4733     
O21      O      0.145220000000     0.286130000000     0.033980000000    -0.483362   
O22      O      0.233980000000     0.198280000000     0.058670000000    -0.4627     
O23      O      0.195100000000     0.259690000000     0.140520000000    -0.487415   
O24      O      0.181580000000     0.226870000000     0.953980000000    -0.467067   
O25      O      0.296630000000     0.254160000000     0.445160000000    -0.462973   
O26      O      0.277820000000     0.256570000000     0.633990000000    -0.470176   
O27      O      0.333000000000     0.200380000000     0.570140000000    -0.473522   
O28      O      0.250730000000     0.292600000000     0.543020000000    -0.430666   
O29      O      0.195580000000     0.234310000000     0.525910000000    -0.430391   
O30      O      0.288890000000     0.151590000000     0.509190000000    -0.471269   
O31      O      0.233820000000     0.190230000000     0.628240000000    -0.462538   
O32      O      0.234750000000     0.203810000000     0.437290000000    -0.470764   
O33      O      0.426570000000     0.572240000000     0.989290000000    -0.388366   
O34      O      0.029710000000     0.987380000000     0.992350000000    -0.383624   
O35      O      0.432140000000     0.974840000000     0.963140000000    -0.394547   
O36      O      0.021570000000     0.586230000000     0.017890000000    -0.396994   
O37      O      0.014460000000     0.564270000000     0.125950000000    -0.397142   
O38      O      0.413000000000     0.964730000000     0.071900000000    -0.407225   
O39      O      0.009030000000     0.964480000000     0.096760000000    -0.386449   
O40      O      0.415790000000     0.560170000000     0.099670000000    -0.38425    
O41      O      0.059480000000     0.918300000000     0.485850000000    -0.391998   
O42      O      0.463010000000     0.510230000000     0.490150000000    -0.391368   
O43      O      0.062220000000     0.517400000000     0.472150000000    -0.410436   
O44      O      0.464240000000     0.911850000000     0.502460000000    -0.416344   
O45      O      0.470450000000     0.920980000000     0.614360000000    -0.409183   
O46      O      0.073590000000     0.522000000000     0.583750000000    -0.413619   
O47      O      0.475250000000     0.520410000000     0.600620000000    -0.392687   
O48      O      0.068570000000     0.925520000000     0.597520000000    -0.392452   
O49      O      0.230610000000     0.788990000000     0.934570000000    -0.481788   
O50      O      0.260110000000     0.804040000000     0.122240000000    -0.474243   
O51      O      0.289180000000     0.751270000000     0.021960000000    -0.470247   
O52      O      0.203380000000     0.841850000000     0.037150000000    -0.4734     
O53      O      0.145220000000     0.786130000000     0.033980000000    -0.483367   
O54      O      0.233980000000     0.698280000000     0.058670000000    -0.462697   
O55      O      0.195100000000     0.759690000000     0.140520000000    -0.487416   
O56      O      0.181580000000     0.726870000000     0.953980000000    -0.467066   
O57      O      0.296630000000     0.754160000000     0.445160000000    -0.463033   
O58      O      0.277820000000     0.756570000000     0.633990000000    -0.470185   
O59      O      0.333000000000     0.700380000000     0.570140000000    -0.473526   
O60      O      0.250730000000     0.792600000000     0.543020000000    -0.430665   
O61      O      0.195580000000     0.734310000000     0.525910000000    -0.430388   
O62      O      0.288890000000     0.651590000000     0.509190000000    -0.471271   
O63      O      0.233820000000     0.690230000000     0.628240000000    -0.462538   
O64      O      0.234750000000     0.703810000000     0.437290000000    -0.470705   
O65      O      0.926580000000     0.072250000000     0.989290000000    -0.388343   
O66      O      0.529710000000     0.487380000000     0.992350000000    -0.383616   
O67      O      0.932140000000     0.474840000000     0.963140000000    -0.394546   
O68      O      0.521570000000     0.086230000000     0.017890000000    -0.396978   
O69      O      0.514460000000     0.064270000000     0.125950000000    -0.397127   
O70      O      0.913000000000     0.464730000000     0.071900000000    -0.407225   
O71      O      0.509030000000     0.464480000000     0.096760000000    -0.386447   
O72      O      0.915790000000     0.060170000000     0.099670000000    -0.384237   
O73      O      0.559480000000     0.418300000000     0.485850000000    -0.391996   
O74      O      0.963010000000     0.010230000000     0.490150000000    -0.391332   
O75      O      0.562220000000     0.017400000000     0.472150000000    -0.410405   
O76      O      0.964240000000     0.411850000000     0.502460000000    -0.416315   
O77      O      0.970450000000     0.420980000000     0.614360000000    -0.409215   
O78      O      0.573600000000     0.022000000000     0.583750000000    -0.413586   
O79      O      0.975250000000     0.020410000000     0.600620000000    -0.39263    
O80      O      0.568570000000     0.425520000000     0.597520000000    -0.39244    
O81      O      0.730610000000     0.288990000000     0.934570000000    -0.481798   
O82      O      0.760110000000     0.304040000000     0.122240000000    -0.474255   
O83      O      0.789180000000     0.251270000000     0.021960000000    -0.470255   
O84      O      0.703380000000     0.341850000000     0.037150000000    -0.473291   
O85      O      0.645210000000     0.286130000000     0.033980000000    -0.483279   
O86      O      0.733980000000     0.198280000000     0.058670000000    -0.462682   
O87      O      0.695100000000     0.259690000000     0.140520000000    -0.487403   
O88      O      0.681580000000     0.226870000000     0.953980000000    -0.467056   
O89      O      0.796630000000     0.254160000000     0.445160000000    -0.462975   
O90      O      0.777820000000     0.256570000000     0.633990000000    -0.470175   
O91      O      0.833000000000     0.200380000000     0.570140000000    -0.473526   
O92      O      0.750730000000     0.292600000000     0.543020000000    -0.43076    
O93      O      0.695580000000     0.234310000000     0.525910000000    -0.430393   
O94      O      0.788890000000     0.151590000000     0.509190000000    -0.471269   
O95      O      0.733820000000     0.190230000000     0.628240000000    -0.462537   
O96      O      0.734750000000     0.203810000000     0.437290000000    -0.470764   
O97      O      0.926580000000     0.572240000000     0.989290000000    -0.388379   
O98      O      0.529710000000     0.987380000000     0.992350000000    -0.383641   
O99      O      0.932140000000     0.974840000000     0.963140000000    -0.394545   
O100     O      0.521570000000     0.586230000000     0.017890000000    -0.396985   
O101     O      0.514460000000     0.564270000000     0.125950000000    -0.39714    
O102     O      0.913000000000     0.964730000000     0.071900000000    -0.407237   
O103     O      0.509040000000     0.964480000000     0.096760000000    -0.386447   
O104     O      0.915780000000     0.560170000000     0.099670000000    -0.384207   
O105     O      0.559480000000     0.918300000000     0.485850000000    -0.392      
O106     O      0.963010000000     0.510230000000     0.490150000000    -0.391371   
O107     O      0.562220000000     0.517400000000     0.472150000000    -0.410489   
O108     O      0.964240000000     0.911850000000     0.502460000000    -0.416325   
O109     O      0.970460000000     0.920980000000     0.614360000000    -0.4092     
O110     O      0.573600000000     0.522000000000     0.583750000000    -0.41361    
O111     O      0.975250000000     0.520410000000     0.600620000000    -0.392623   
O112     O      0.568570000000     0.925520000000     0.597520000000    -0.392441   
O113     O      0.730610000000     0.788990000000     0.934570000000    -0.481788   
O114     O      0.760110000000     0.804040000000     0.122240000000    -0.474243   
O115     O      0.789180000000     0.751270000000     0.021960000000    -0.470247   
O116     O      0.703380000000     0.841850000000     0.037150000000    -0.4734     
O117     O      0.645220000000     0.786130000000     0.033980000000    -0.483367   
O118     O      0.733980000000     0.698280000000     0.058670000000    -0.462697   
O119     O      0.695100000000     0.759690000000     0.140520000000    -0.487416   
O120     O      0.681580000000     0.726870000000     0.953980000000    -0.467066   
O121     O      0.796630000000     0.754160000000     0.445160000000    -0.463027   
O122     O      0.777820000000     0.756570000000     0.633990000000    -0.470179   
O123     O      0.833000000000     0.700380000000     0.570140000000    -0.473515   
O124     O      0.750720000000     0.792600000000     0.543020000000    -0.43071    
O125     O      0.695580000000     0.734310000000     0.525910000000    -0.430431   
O126     O      0.788890000000     0.651590000000     0.509190000000    -0.471272   
O127     O      0.733820000000     0.690230000000     0.628240000000    -0.46254    
O128     O      0.734750000000     0.703810000000     0.437290000000    -0.470706   
S1       S      0.214390000000     0.342110000000     0.823080000000    -0.0053246  
S2       S      0.145410000000     0.269550000000     0.256490000000    -0.0147993  
S3       S      0.125540000000     0.259930000000     0.440620000000    -0.00596392 
S4       S      0.392090000000     0.248750000000     0.461090000000    -0.0303934  
S5       S      0.382400000000     0.155220000000     0.667720000000    -0.00940014 
S6       S      0.238490000000     0.093570000000     0.615830000000    -0.0253496  
S7       S      0.131220000000     0.495020000000     0.017180000000    -0.0109802  
S8       S      0.416650000000     0.377210000000     0.913490000000    -0.0170697  
S9       S      0.321540000000     0.059090000000     0.134440000000    -0.0123232  
S10      S      0.089250000000     0.267120000000     0.036240000000     0.0822114  
S11      S      0.214390000000     0.842120000000     0.823080000000    -0.00532835 
S12      S      0.145410000000     0.769560000000     0.256490000000    -0.0148078  
S13      S      0.125540000000     0.759930000000     0.440620000000    -0.0059621  
S14      S      0.392090000000     0.748750000000     0.461090000000    -0.0304012  
S15      S      0.382400000000     0.655230000000     0.667720000000    -0.00940885 
S16      S      0.238490000000     0.593560000000     0.615830000000    -0.0253432  
S17      S      0.131220000000     0.995020000000     0.017180000000    -0.0109739  
S18      S      0.416660000000     0.877210000000     0.913490000000    -0.0170747  
S19      S      0.321540000000     0.559090000000     0.134440000000    -0.0123346  
S20      S      0.089250000000     0.767120000000     0.036240000000     0.0822234  
S21      S      0.714390000000     0.342110000000     0.823080000000    -0.0053222  
S22      S      0.645420000000     0.269550000000     0.256490000000    -0.0147991  
S23      S      0.625540000000     0.259930000000     0.440620000000    -0.00595811 
S24      S      0.892090000000     0.248750000000     0.461090000000    -0.0303911  
S25      S      0.882400000000     0.155220000000     0.667720000000    -0.00941322 
S26      S      0.738490000000     0.093570000000     0.615830000000    -0.025349   
S27      S      0.631220000000     0.495020000000     0.017180000000    -0.0109795  
S28      S      0.916660000000     0.377210000000     0.913490000000    -0.0170605  
S29      S      0.821530000000     0.059090000000     0.134440000000    -0.0123432  
S30      S      0.589250000000     0.267120000000     0.036240000000     0.0822798  
S31      S      0.714390000000     0.842120000000     0.823080000000    -0.00532818 
S32      S      0.645410000000     0.769560000000     0.256490000000    -0.0148071  
S33      S      0.625540000000     0.759930000000     0.440620000000    -0.00596484 
S34      S      0.892090000000     0.748750000000     0.461090000000    -0.0303953  
S35      S      0.882400000000     0.655230000000     0.667720000000    -0.00940794 
S36      S      0.738490000000     0.593560000000     0.615830000000    -0.0253432  
S37      S      0.631220000000     0.995020000000     0.017180000000    -0.0109709  
S38      S      0.916650000000     0.877210000000     0.913490000000    -0.0170737  
S39      S      0.821540000000     0.559090000000     0.134440000000    -0.0123236  
S40      S      0.589250000000     0.767120000000     0.036240000000     0.0822234  


