data_structure

_audit_creation_method RASPA-1.0
_audit_creation_date 2023-5-19
_audit_author_name 'Poobodin Mano'

_cell_length_a    42.9002
_cell_length_b    42.3889
_cell_length_c    43.0351
_cell_angle_alpha 90
_cell_angle_beta  90
_cell_angle_gamma 90
_cell_volume      78259

_symmetry_cell_setting          triclinic
_symmetry_space_group_name_Hall 'P 1'
_symmetry_space_group_name_H-M  'P 1'
_symmetry_Int_Tables_number     1

_symmetry_equiv_pos_as_xyz 'x,y,z'

loop_
_atom_site_label
_atom_site_type_symbol
_atom_site_fract_x
_atom_site_fract_y
_atom_site_fract_z
_atom_site_charge
C1       C      0.055530000000     0.995270000000     0.255380000000     0.400074   
C2       C      0.432050000000     0.500770000000     0.250790000000     0.417229   
C3       C      0.996270000000     0.060710000000     0.245540000000     0.395806   
C4       C      0.490410000000     0.436760000000     0.260030000000     0.420068   
C5       C      0.008650000000     0.188920000000     0.242040000000     0.418348   
C6       C      0.007470000000     0.314180000000     0.242880000000     0.402767   
C7       C      0.010140000000     0.254390000000     0.180280000000     0.401932   
C8       C      0.006760000000     0.249600000000     0.303540000000     0.40432    
C9       C      0.307170000000     0.011650000000     0.261830000000     0.394981   
C10      C      0.183800000000     0.002660000000     0.253050000000     0.409057   
C11      C      0.248660000000     0.010880000000     0.195780000000     0.409947   
C12      C      0.241370000000     0.002890000000     0.318970000000     0.393944   
C13      C      0.255910000000     0.020300000000     0.069240000000     0.398146   
C14      C      0.248750000000     0.507120000000     0.446470000000     0.417904   
C15      C      0.251800000000     0.075820000000     0.000980000000     0.398104   
C16      C      0.253050000000     0.450920000000     0.514610000000     0.399879   
C17      C      0.006090000000     0.258850000000     0.052400000000     0.419419   
C18      C      0.497090000000     0.261250000000     0.429530000000     0.420752   
C19      C      0.062660000000     0.254000000000     0.985180000000     0.421337   
C20      C      0.440010000000     0.266590000000     0.495810000000     0.417563   
C21      C      0.312960000000     0.261640000000     0.990220000000     0.403686   
C22      C      0.189220000000     0.258510000000     0.991040000000     0.40004    
C23      C      0.254510000000     0.198870000000     0.978710000000     0.419767   
C24      C      0.248930000000     0.321740000000     0.001940000000     0.413032   
C25      C      0.361490000000     0.238140000000     0.009670000000    -0.0131059  
C26      C      0.362330000000     0.277480000000     0.465670000000    -0.0639865  
C27      C      0.391530000000     0.252400000000     0.022470000000    -0.00759815 
C28      C      0.390960000000     0.293480000000     0.480140000000     0.166092   
C29      C      0.139640000000     0.238970000000     0.012900000000    -0.014287   
C30      C      0.140610000000     0.284320000000     0.474810000000    -0.0664673  
C31      C      0.111230000000     0.225260000000     0.995970000000    -0.00770898 
C32      C      0.111510000000     0.271090000000     0.459000000000     0.16712    
C33      C      0.281130000000     0.401000000000     0.006950000000    -0.0129173  
C34      C      0.230810000000     0.401640000000     0.036730000000    -0.0638568  
C35      C      0.269800000000     0.372980000000     0.488200000000    -0.0060487  
C36      C      0.222520000000     0.368840000000     0.523030000000     0.162764   
C37      C      0.224020000000     0.124550000000     0.985320000000    -0.0167594  
C38      C      0.278290000000     0.127070000000     0.008050000000    -0.0670987  
C39      C      0.233650000000     0.148550000000     0.460320000000    -0.0076653  
C40      C      0.287350000000     0.151180000000     0.483210000000     0.16969    
C41      C      0.217030000000     0.021280000000     0.367490000000    -0.0148509  
C42      C      0.252510000000     0.474060000000     0.367420000000    -0.0644016  
C43      C      0.230440000000     0.031550000000     0.398870000000    -0.0084644  
C44      C      0.268800000000     0.486320000000     0.396810000000     0.167234   
C45      C      0.283680000000     0.510540000000     0.118610000000    -0.0151522  
C46      C      0.235570000000     0.044320000000     0.117450000000    -0.0657111  
C47      C      0.270530000000     0.492320000000     0.146410000000    -0.00755564 
C48      C      0.223370000000     0.027840000000     0.146760000000     0.16534    
C49      C      0.983490000000     0.228600000000     0.351700000000    -0.0160754  
C50      C      0.031480000000     0.262850000000     0.353250000000    -0.0643529  
C51      C      0.471410000000     0.244830000000     0.381170000000    -0.00786286 
C52      C      0.517250000000     0.282200000000     0.379650000000     0.166121   
C53      C      0.990840000000     0.282220000000     0.134260000000    -0.0181512  
C54      C      0.037900000000     0.247010000000     0.130960000000    -0.064481   
C55      C      0.481610000000     0.272800000000     0.101190000000    -0.00852606 
C56      C      0.526450000000     0.234050000000     0.099810000000     0.168053   
C57      C      0.104520000000     0.508970000000     0.281850000000    -0.0150411  
C58      C      0.104290000000     0.469100000000     0.238640000000    -0.0653057  
C59      C      0.133220000000     0.024500000000     0.267790000000    -0.00591755 
C60      C      0.136090000000     0.981620000000     0.227290000000     0.166354   
C61      C      0.356800000000     0.038190000000     0.248570000000    -0.0161193  
C62      C      0.355830000000     0.991570000000     0.284830000000    -0.0600993  
C63      C      0.383090000000     0.522380000000     0.229810000000    -0.00746502 
C64      C      0.382070000000     0.476000000000     0.266400000000     0.167739   
C65      C      0.029570000000     0.365150000000     0.259920000000    -0.0154479  
C66      C      0.982300000000     0.363140000000     0.225060000000    -0.0676309  
C67      C      0.512140000000     0.387950000000     0.281680000000    -0.00884758 
C68      C      0.465230000000     0.385680000000     0.246830000000     0.169117   
C69      C      0.013690000000     0.107760000000     0.216360000000    -0.0117404  
C70      C      0.474690000000     0.112400000000     0.260020000000    -0.0664543  
C71      C      0.030650000000     0.137140000000     0.228600000000    -0.00773202 
C72      C      0.491190000000     0.142120000000     0.271510000000     0.166993   
C73      C      0.055530000000     0.995270000000     0.755380000000     0.400068   
C74      C      0.432050000000     0.500770000000     0.750790000000     0.417471   
C75      C      0.996270000000     0.060710000000     0.745540000000     0.39581    
C76      C      0.490410000000     0.436760000000     0.760030000000     0.420073   
C77      C      0.008650000000     0.188920000000     0.742040000000     0.418343   
C78      C      0.007470000000     0.314180000000     0.742880000000     0.402763   
C79      C      0.010140000000     0.254390000000     0.680280000000     0.401926   
C80      C      0.006760000000     0.249600000000     0.803540000000     0.404385   
C81      C      0.307170000000     0.011650000000     0.761830000000     0.39499    
C82      C      0.183800000000     0.002660000000     0.753050000000     0.409069   
C83      C      0.248660000000     0.010880000000     0.695780000000     0.409953   
C84      C      0.241370000000     0.002890000000     0.818970000000     0.394073   
C85      C      0.255910000000     0.020300000000     0.569240000000     0.398098   
C86      C      0.248750000000     0.507120000000     0.946470000000     0.417932   
C87      C      0.251800000000     0.075820000000     0.500980000000     0.397696   
C88      C      0.253050000000     0.450920000000     0.014610000000     0.399993   
C89      C      0.006090000000     0.258850000000     0.552400000000     0.419469   
C90      C      0.497090000000     0.261250000000     0.929530000000     0.420728   
C91      C      0.062660000000     0.254000000000     0.485180000000     0.421421   
C92      C      0.440010000000     0.266590000000     0.995810000000     0.417507   
C93      C      0.312960000000     0.261640000000     0.490220000000     0.404149   
C94      C      0.189220000000     0.258510000000     0.491040000000     0.400527   
C95      C      0.254510000000     0.198870000000     0.478710000000     0.42026    
C96      C      0.248930000000     0.321740000000     0.501940000000     0.412241   
C97      C      0.361490000000     0.238140000000     0.509670000000    -0.0138789  
C98      C      0.362330000000     0.277480000000     0.965670000000    -0.0639172  
C99      C      0.391530000000     0.252400000000     0.522470000000    -0.00773092 
C100     C      0.390960000000     0.293480000000     0.980140000000     0.166044   
C101     C      0.139640000000     0.238970000000     0.512900000000    -0.0151324  
C102     C      0.140610000000     0.284320000000     0.974810000000    -0.0664426  
C103     C      0.111230000000     0.225260000000     0.495970000000    -0.00677896 
C104     C      0.111510000000     0.271090000000     0.959000000000     0.167055   
C105     C      0.281130000000     0.401000000000     0.506950000000    -0.0139449  
C106     C      0.230810000000     0.401640000000     0.536730000000    -0.0639197  
C107     C      0.269800000000     0.372980000000     0.988200000000    -0.00690634 
C108     C      0.222520000000     0.368840000000     0.023030000000     0.162762   
C109     C      0.224020000000     0.124550000000     0.485320000000    -0.016237   
C110     C      0.278290000000     0.127070000000     0.508050000000    -0.0677926  
C111     C      0.233650000000     0.148550000000     0.960330000000    -0.00748222 
C112     C      0.287350000000     0.151180000000     0.983210000000     0.169295   
C113     C      0.217030000000     0.021280000000     0.867490000000    -0.0148477  
C114     C      0.252510000000     0.474060000000     0.867420000000    -0.0643707  
C115     C      0.230440000000     0.031550000000     0.898870000000    -0.00846633 
C116     C      0.268800000000     0.486320000000     0.896810000000     0.167228   
C117     C      0.283680000000     0.510540000000     0.618610000000    -0.0151474  
C118     C      0.235570000000     0.044320000000     0.617450000000    -0.0656779  
C119     C      0.270530000000     0.492320000000     0.646410000000    -0.00755915 
C120     C      0.223370000000     0.027840000000     0.646760000000     0.165222   
C121     C      0.983490000000     0.228600000000     0.851700000000    -0.0160564  
C122     C      0.031480000000     0.262850000000     0.853250000000    -0.064309   
C123     C      0.471410000000     0.244830000000     0.881160000000    -0.00788615 
C124     C      0.517250000000     0.282200000000     0.879650000000     0.165995   
C125     C      0.990840000000     0.282220000000     0.634260000000    -0.0181557  
C126     C      0.037900000000     0.247010000000     0.630960000000    -0.0644821  
C127     C      0.481610000000     0.272800000000     0.601190000000    -0.008521   
C128     C      0.526450000000     0.234050000000     0.599810000000     0.168055   
C129     C      0.104520000000     0.508970000000     0.781850000000    -0.0150395  
C130     C      0.104290000000     0.469100000000     0.738640000000    -0.0653119  
C131     C      0.133220000000     0.024500000000     0.767790000000    -0.00592115 
C132     C      0.136090000000     0.981620000000     0.727290000000     0.166363   
C133     C      0.356800000000     0.038190000000     0.748570000000    -0.0161215  
C134     C      0.355830000000     0.991570000000     0.784830000000    -0.060117   
C135     C      0.383090000000     0.522380000000     0.729810000000    -0.0074538  
C136     C      0.382070000000     0.476000000000     0.766400000000     0.167748   
C137     C      0.029570000000     0.365150000000     0.759920000000    -0.0153961  
C138     C      0.982300000000     0.363140000000     0.725060000000    -0.0676257  
C139     C      0.512140000000     0.387950000000     0.781680000000    -0.00886391 
C140     C      0.465230000000     0.385680000000     0.746830000000     0.169115   
C141     C      0.013690000000     0.107760000000     0.716360000000    -0.0117636  
C142     C      0.474690000000     0.112400000000     0.760020000000    -0.0664582  
C143     C      0.030650000000     0.137140000000     0.728610000000    -0.00767516 
C144     C      0.491190000000     0.142120000000     0.771510000000     0.167008   
C145     C      0.055530000000     0.495270000000     0.255380000000     0.396498   
C146     C      0.432050000000     0.000770000000     0.250790000000     0.413431   
C147     C      0.996270000000     0.560710000000     0.245540000000     0.39563    
C148     C      0.490410000000     0.936760000000     0.260030000000     0.419868   
C149     C      0.008650000000     0.688920000000     0.242040000000     0.418369   
C150     C      0.007470000000     0.814180000000     0.242880000000     0.402728   
C151     C      0.010140000000     0.754400000000     0.180280000000     0.401922   
C152     C      0.006760000000     0.749600000000     0.303540000000     0.404314   
C153     C      0.307170000000     0.511650000000     0.261830000000     0.398534   
C154     C      0.183800000000     0.502660000000     0.253050000000     0.412729   
C155     C      0.248660000000     0.510880000000     0.195780000000     0.41353    
C156     C      0.241370000000     0.502890000000     0.318970000000     0.397631   
C157     C      0.255910000000     0.520300000000     0.069240000000     0.398875   
C158     C      0.248750000000     0.007120000000     0.446470000000     0.417551   
C159     C      0.251800000000     0.575820000000     0.000980000000     0.398255   
C160     C      0.253050000000     0.950920000000     0.514610000000     0.399411   
C161     C      0.006090000000     0.758850000000     0.052400000000     0.419404   
C162     C      0.497090000000     0.761250000000     0.429530000000     0.420737   
C163     C      0.062660000000     0.754000000000     0.985180000000     0.421314   
C164     C      0.440010000000     0.766590000000     0.495810000000     0.417554   
C165     C      0.312960000000     0.761640000000     0.990220000000     0.403668   
C166     C      0.189220000000     0.758510000000     0.991040000000     0.400015   
C167     C      0.254510000000     0.698870000000     0.978710000000     0.419741   
C168     C      0.248930000000     0.821740000000     0.001940000000     0.413151   
C169     C      0.361490000000     0.738140000000     0.009670000000    -0.0130766  
C170     C      0.362330000000     0.777480000000     0.465670000000    -0.0640073  
C171     C      0.391530000000     0.752390000000     0.022470000000    -0.00765223 
C172     C      0.390960000000     0.793480000000     0.480140000000     0.166129   
C173     C      0.139640000000     0.738970000000     0.012900000000    -0.0142773  
C174     C      0.140610000000     0.784320000000     0.474810000000    -0.0665292  
C175     C      0.111230000000     0.725260000000     0.995970000000    -0.00773803 
C176     C      0.111510000000     0.771100000000     0.459000000000     0.167157   
C177     C      0.281130000000     0.901000000000     0.006950000000    -0.0129286  
C178     C      0.230810000000     0.901640000000     0.036730000000    -0.0638979  
C179     C      0.269800000000     0.872980000000     0.488200000000    -0.00602545 
C180     C      0.222520000000     0.868840000000     0.523030000000     0.162809   
C181     C      0.224020000000     0.624550000000     0.985320000000    -0.016789   
C182     C      0.278290000000     0.627070000000     0.008050000000    -0.0670861  
C183     C      0.233650000000     0.648550000000     0.460320000000    -0.00764628 
C184     C      0.287350000000     0.651180000000     0.483210000000     0.169659   
C185     C      0.217030000000     0.521280000000     0.367490000000    -0.0145285  
C186     C      0.252510000000     0.974070000000     0.367420000000    -0.0634708  
C187     C      0.230440000000     0.531550000000     0.398870000000    -0.00842403 
C188     C      0.268800000000     0.986320000000     0.396810000000     0.172433   
C189     C      0.283680000000     0.010540000000     0.118610000000    -0.0223142  
C190     C      0.235570000000     0.544320000000     0.117450000000    -0.0652942  
C191     C      0.270530000000     0.992320000000     0.146410000000    -0.00135949 
C192     C      0.223370000000     0.527840000000     0.146760000000     0.165245   
C193     C      0.983490000000     0.728610000000     0.351700000000    -0.0159738  
C194     C      0.031480000000     0.762850000000     0.353250000000    -0.064297   
C195     C      0.471410000000     0.744830000000     0.381170000000    -0.00791096 
C196     C      0.517250000000     0.782200000000     0.379650000000     0.166075   
C197     C      0.990840000000     0.782220000000     0.134260000000    -0.0181354  
C198     C      0.037900000000     0.747010000000     0.130960000000    -0.0644804  
C199     C      0.481610000000     0.772800000000     0.101190000000    -0.00852967 
C200     C      0.526450000000     0.734050000000     0.099810000000     0.168054   
C201     C      0.104520000000     0.008970000000     0.281850000000    -0.021067   
C202     C      0.104290000000     0.969100000000     0.238640000000    -0.0655916  
C203     C      0.133220000000     0.524500000000     0.267790000000    -0.00715316 
C204     C      0.136090000000     0.481620000000     0.227290000000     0.164212   
C205     C      0.356800000000     0.538190000000     0.248570000000    -0.0159752  
C206     C      0.355830000000     0.491570000000     0.284830000000    -0.0656313  
C207     C      0.383090000000     0.022390000000     0.229810000000    -0.00780076 
C208     C      0.382070000000     0.976000000000     0.266400000000     0.168381   
C209     C      0.029570000000     0.865160000000     0.259920000000    -0.0154661  
C210     C      0.982300000000     0.863140000000     0.225060000000    -0.067634   
C211     C      0.512140000000     0.887950000000     0.281680000000    -0.00888481 
C212     C      0.465230000000     0.885680000000     0.246830000000     0.169105   
C213     C      0.013690000000     0.607760000000     0.216360000000    -0.0118089  
C214     C      0.474690000000     0.612400000000     0.260020000000    -0.0664657  
C215     C      0.030650000000     0.637140000000     0.228600000000    -0.00769943 
C216     C      0.491190000000     0.642120000000     0.271510000000     0.167002   
C217     C      0.055530000000     0.495270000000     0.755380000000     0.396502   
C218     C      0.432050000000     0.000770000000     0.750790000000     0.41368    
C219     C      0.996270000000     0.560710000000     0.745540000000     0.395635   
C220     C      0.490410000000     0.936760000000     0.760030000000     0.419874   
C221     C      0.008650000000     0.688920000000     0.742040000000     0.418364   
C222     C      0.007470000000     0.814180000000     0.742880000000     0.402724   
C223     C      0.010140000000     0.754400000000     0.680280000000     0.401916   
C224     C      0.006760000000     0.749600000000     0.803540000000     0.404379   
C225     C      0.307170000000     0.511650000000     0.761830000000     0.398533   
C226     C      0.183800000000     0.502660000000     0.753050000000     0.412731   
C227     C      0.248660000000     0.510880000000     0.695780000000     0.413528   
C228     C      0.241370000000     0.502890000000     0.818970000000     0.397748   
C229     C      0.255910000000     0.520300000000     0.569240000000     0.398826   
C230     C      0.248750000000     0.007120000000     0.946470000000     0.417579   
C231     C      0.251800000000     0.575820000000     0.500980000000     0.397839   
C232     C      0.253050000000     0.950920000000     0.014610000000     0.399525   
C233     C      0.006090000000     0.758850000000     0.552400000000     0.419456   
C234     C      0.497090000000     0.761250000000     0.929530000000     0.420712   
C235     C      0.062660000000     0.754000000000     0.485180000000     0.4214     
C236     C      0.440010000000     0.766590000000     0.995810000000     0.417495   
C237     C      0.312960000000     0.761640000000     0.490220000000     0.404141   
C238     C      0.189220000000     0.758510000000     0.491040000000     0.400511   
C239     C      0.254510000000     0.698870000000     0.478710000000     0.420244   
C240     C      0.248930000000     0.821740000000     0.501940000000     0.412351   
C241     C      0.361490000000     0.738140000000     0.509670000000    -0.0138633  
C242     C      0.362330000000     0.777480000000     0.965670000000    -0.0639385  
C243     C      0.391530000000     0.752390000000     0.522470000000    -0.00778729 
C244     C      0.390960000000     0.793480000000     0.980140000000     0.166081   
C245     C      0.139640000000     0.738970000000     0.512900000000    -0.0151383  
C246     C      0.140610000000     0.784320000000     0.974810000000    -0.066504   
C247     C      0.111230000000     0.725260000000     0.495970000000    -0.00678886 
C248     C      0.111510000000     0.771100000000     0.959000000000     0.167092   
C249     C      0.281130000000     0.901000000000     0.506950000000    -0.0139774  
C250     C      0.230810000000     0.901640000000     0.536730000000    -0.0639618  
C251     C      0.269800000000     0.872980000000     0.988200000000    -0.00690216 
C252     C      0.222520000000     0.868840000000     0.023030000000     0.162806   
C253     C      0.224020000000     0.624550000000     0.485320000000    -0.0162571  
C254     C      0.278290000000     0.627070000000     0.508050000000    -0.0677934  
C255     C      0.233650000000     0.648550000000     0.960330000000    -0.00746215 
C256     C      0.287350000000     0.651180000000     0.983210000000     0.169254   
C257     C      0.217030000000     0.521280000000     0.867490000000    -0.0145261  
C258     C      0.252510000000     0.974070000000     0.867420000000    -0.063443   
C259     C      0.230440000000     0.531550000000     0.898870000000    -0.00842604 
C260     C      0.268800000000     0.986320000000     0.896810000000     0.172401   
C261     C      0.283680000000     0.010540000000     0.618610000000    -0.0223004  
C262     C      0.235570000000     0.544320000000     0.617450000000    -0.0652615  
C263     C      0.270530000000     0.992320000000     0.646410000000    -0.00137134 
C264     C      0.223370000000     0.527840000000     0.646760000000     0.165126   
C265     C      0.983490000000     0.728610000000     0.851700000000    -0.0159547  
C266     C      0.031480000000     0.762850000000     0.853250000000    -0.064253   
C267     C      0.471410000000     0.744830000000     0.881160000000    -0.00793426 
C268     C      0.517250000000     0.782200000000     0.879650000000     0.165949   
C269     C      0.990840000000     0.782220000000     0.634260000000    -0.01814    
C270     C      0.037900000000     0.747010000000     0.630960000000    -0.0644816  
C271     C      0.481610000000     0.772800000000     0.601190000000    -0.00852452 
C272     C      0.526450000000     0.734050000000     0.599810000000     0.168057   
C273     C      0.104520000000     0.008970000000     0.781850000000    -0.0210477  
C274     C      0.104290000000     0.969100000000     0.738640000000    -0.065597   
C275     C      0.133220000000     0.524500000000     0.767790000000    -0.00715296 
C276     C      0.136090000000     0.481620000000     0.727290000000     0.164226   
C277     C      0.356800000000     0.538190000000     0.748570000000    -0.0159778  
C278     C      0.355830000000     0.491570000000     0.784830000000    -0.0656322  
C279     C      0.383090000000     0.022390000000     0.729810000000    -0.00778876 
C280     C      0.382070000000     0.976000000000     0.766400000000     0.16839    
C281     C      0.029570000000     0.865160000000     0.759920000000    -0.0154143  
C282     C      0.982300000000     0.863140000000     0.725060000000    -0.0676288  
C283     C      0.512140000000     0.887950000000     0.781680000000    -0.00890096 
C284     C      0.465230000000     0.885680000000     0.746830000000     0.169103   
C285     C      0.013690000000     0.607760000000     0.716360000000    -0.0118319  
C286     C      0.474690000000     0.612400000000     0.760020000000    -0.0664695  
C287     C      0.030650000000     0.637140000000     0.728610000000    -0.00764264 
C288     C      0.491190000000     0.642120000000     0.771510000000     0.167017   
C289     C      0.555530000000     0.995270000000     0.255380000000     0.400409   
C290     C      0.932050000000     0.500770000000     0.250790000000     0.417108   
C291     C      0.496270000000     0.060710000000     0.245540000000     0.398359   
C292     C      0.990410000000     0.436760000000     0.260030000000     0.41975    
C293     C      0.508650000000     0.188920000000     0.242040000000     0.416029   
C294     C      0.507470000000     0.314180000000     0.242880000000     0.400648   
C295     C      0.510140000000     0.254390000000     0.180280000000     0.399642   
C296     C      0.506760000000     0.249600000000     0.303540000000     0.401931   
C297     C      0.807170000000     0.011650000000     0.261830000000     0.394977   
C298     C      0.683800000000     0.002660000000     0.253050000000     0.409048   
C299     C      0.748660000000     0.010880000000     0.195780000000     0.409941   
C300     C      0.741370000000     0.002890000000     0.318970000000     0.393937   
C301     C      0.755910000000     0.020300000000     0.069240000000     0.398153   
C302     C      0.748750000000     0.507120000000     0.446470000000     0.417913   
C303     C      0.751800000000     0.075820000000     0.000980000000     0.398111   
C304     C      0.753050000000     0.450920000000     0.514610000000     0.399888   
C305     C      0.506090000000     0.258850000000     0.052400000000     0.419384   
C306     C      0.997090000000     0.261250000000     0.429530000000     0.418323   
C307     C      0.562660000000     0.254000000000     0.985180000000     0.421467   
C308     C      0.940010000000     0.266590000000     0.495810000000     0.417603   
C309     C      0.812960000000     0.261640000000     0.990220000000     0.403689   
C310     C      0.689220000000     0.258510000000     0.991040000000     0.400043   
C311     C      0.754510000000     0.198870000000     0.978710000000     0.419771   
C312     C      0.748930000000     0.321740000000     0.001940000000     0.413025   
C313     C      0.861490000000     0.238140000000     0.009670000000    -0.0131113  
C314     C      0.862330000000     0.277480000000     0.465670000000    -0.0639909  
C315     C      0.891530000000     0.252400000000     0.022470000000    -0.00759496 
C316     C      0.890960000000     0.293480000000     0.480140000000     0.166119   
C317     C      0.639650000000     0.238970000000     0.012900000000    -0.0142703  
C318     C      0.640610000000     0.284320000000     0.474810000000    -0.0664559  
C319     C      0.611230000000     0.225260000000     0.995970000000    -0.00770433 
C320     C      0.611510000000     0.271090000000     0.459000000000     0.167109   
C321     C      0.781130000000     0.401000000000     0.006950000000    -0.0129056  
C322     C      0.730810000000     0.401640000000     0.036730000000    -0.0638204  
C323     C      0.769800000000     0.372980000000     0.488200000000    -0.00605361 
C324     C      0.722510000000     0.368840000000     0.523030000000     0.162739   
C325     C      0.724020000000     0.124550000000     0.985320000000    -0.0167475  
C326     C      0.778290000000     0.127070000000     0.008050000000    -0.0670907  
C327     C      0.733650000000     0.148550000000     0.460320000000    -0.00766507 
C328     C      0.787350000000     0.151180000000     0.483210000000     0.169685   
C329     C      0.717030000000     0.021280000000     0.367490000000    -0.0148423  
C330     C      0.752510000000     0.474060000000     0.367420000000    -0.0643957  
C331     C      0.730440000000     0.031550000000     0.398870000000    -0.00846483 
C332     C      0.768800000000     0.486320000000     0.396810000000     0.167233   
C333     C      0.783680000000     0.510540000000     0.118610000000    -0.0151416  
C334     C      0.735570000000     0.044320000000     0.117450000000    -0.0657041  
C335     C      0.770530000000     0.492320000000     0.146410000000    -0.00755623 
C336     C      0.723370000000     0.027840000000     0.146760000000     0.165338   
C337     C      0.483490000000     0.228600000000     0.351700000000    -0.0146749  
C338     C      0.531480000000     0.262850000000     0.353250000000    -0.0642755  
C339     C      0.971410000000     0.244830000000     0.381170000000    -0.00776754 
C340     C      0.017250000000     0.282200000000     0.379650000000     0.167394   
C341     C      0.490840000000     0.282220000000     0.134260000000    -0.01461    
C342     C      0.537900000000     0.247010000000     0.130960000000    -0.0647013  
C343     C      0.981610000000     0.272800000000     0.101190000000    -0.00911777 
C344     C      0.026440000000     0.234050000000     0.099810000000     0.168067   
C345     C      0.604520000000     0.508970000000     0.281850000000    -0.0149978  
C346     C      0.604290000000     0.469100000000     0.238640000000    -0.0652978  
C347     C      0.633220000000     0.024500000000     0.267790000000    -0.00592709 
C348     C      0.636090000000     0.981620000000     0.227290000000     0.166429   
C349     C      0.856800000000     0.038190000000     0.248570000000    -0.016118   
C350     C      0.855830000000     0.991570000000     0.284830000000    -0.0600832  
C351     C      0.883090000000     0.522380000000     0.229810000000    -0.00746179 
C352     C      0.882070000000     0.476000000000     0.266400000000     0.167737   
C353     C      0.529570000000     0.365150000000     0.259920000000    -0.0153172  
C354     C      0.482300000000     0.363140000000     0.225060000000    -0.0662169  
C355     C      0.012140000000     0.387950000000     0.281680000000    -0.00731203 
C356     C      0.965230000000     0.385680000000     0.246830000000     0.169318   
C357     C      0.513690000000     0.107760000000     0.216360000000    -0.0155758  
C358     C      0.974690000000     0.112400000000     0.260020000000    -0.0656611  
C359     C      0.530650000000     0.137140000000     0.228600000000    -0.00689389 
C360     C      0.991190000000     0.142120000000     0.271510000000     0.163473   
C361     C      0.555530000000     0.995270000000     0.755380000000     0.400403   
C362     C      0.932050000000     0.500770000000     0.750790000000     0.41735    
C363     C      0.496270000000     0.060710000000     0.745540000000     0.398362   
C364     C      0.990410000000     0.436760000000     0.760030000000     0.419756   
C365     C      0.508650000000     0.188920000000     0.742040000000     0.416026   
C366     C      0.507470000000     0.314180000000     0.742880000000     0.400646   
C367     C      0.510140000000     0.254390000000     0.680280000000     0.399636   
C368     C      0.506760000000     0.249600000000     0.803540000000     0.401998   
C369     C      0.807170000000     0.011650000000     0.761830000000     0.394986   
C370     C      0.683800000000     0.002660000000     0.753050000000     0.40906    
C371     C      0.748660000000     0.010880000000     0.695780000000     0.409947   
C372     C      0.741370000000     0.002890000000     0.818970000000     0.394066   
C373     C      0.755910000000     0.020300000000     0.569240000000     0.398105   
C374     C      0.748750000000     0.507120000000     0.946470000000     0.417942   
C375     C      0.751800000000     0.075820000000     0.500980000000     0.397705   
C376     C      0.753050000000     0.450920000000     0.014610000000     0.400001   
C377     C      0.506090000000     0.258850000000     0.552400000000     0.419435   
C378     C      0.997090000000     0.261250000000     0.929530000000     0.418306   
C379     C      0.562660000000     0.254000000000     0.485180000000     0.421552   
C380     C      0.940010000000     0.266590000000     0.995810000000     0.417547   
C381     C      0.812960000000     0.261640000000     0.490220000000     0.40415    
C382     C      0.689220000000     0.258510000000     0.491040000000     0.400527   
C383     C      0.754510000000     0.198870000000     0.478710000000     0.420263   
C384     C      0.748930000000     0.321740000000     0.501940000000     0.412235   
C385     C      0.861490000000     0.238140000000     0.509670000000    -0.0138796  
C386     C      0.862330000000     0.277480000000     0.965670000000    -0.0639214  
C387     C      0.891530000000     0.252400000000     0.522470000000    -0.00772637 
C388     C      0.890960000000     0.293480000000     0.980140000000     0.166071   
C389     C      0.639650000000     0.238970000000     0.512900000000    -0.0151154  
C390     C      0.640610000000     0.284320000000     0.974810000000    -0.0664312  
C391     C      0.611230000000     0.225260000000     0.495970000000    -0.00677502 
C392     C      0.611510000000     0.271090000000     0.959000000000     0.167044   
C393     C      0.781130000000     0.401000000000     0.506950000000    -0.0139292  
C394     C      0.730810000000     0.401640000000     0.536730000000    -0.0638831  
C395     C      0.769800000000     0.372980000000     0.988200000000    -0.00690753 
C396     C      0.722510000000     0.368840000000     0.023030000000     0.162737   
C397     C      0.724020000000     0.124550000000     0.485320000000    -0.0162263  
C398     C      0.778290000000     0.127070000000     0.508050000000    -0.067782   
C399     C      0.733650000000     0.148550000000     0.960330000000    -0.00748204 
C400     C      0.787350000000     0.151180000000     0.983210000000     0.169292   
C401     C      0.717030000000     0.021280000000     0.867490000000    -0.0148391  
C402     C      0.752510000000     0.474060000000     0.867420000000    -0.0643648  
C403     C      0.730440000000     0.031550000000     0.898870000000    -0.00846678 
C404     C      0.768800000000     0.486320000000     0.896810000000     0.167227   
C405     C      0.783680000000     0.510540000000     0.618610000000    -0.0151368  
C406     C      0.735570000000     0.044320000000     0.617450000000    -0.0656709  
C407     C      0.770530000000     0.492320000000     0.646410000000    -0.00755973 
C408     C      0.723370000000     0.027840000000     0.646760000000     0.165219   
C409     C      0.483490000000     0.228600000000     0.851700000000    -0.0146585  
C410     C      0.531480000000     0.262850000000     0.853250000000    -0.0642319  
C411     C      0.971410000000     0.244830000000     0.881160000000    -0.00779078 
C412     C      0.017250000000     0.282200000000     0.879650000000     0.167264   
C413     C      0.490840000000     0.282220000000     0.634260000000    -0.014613   
C414     C      0.537900000000     0.247010000000     0.630960000000    -0.0647026  
C415     C      0.981610000000     0.272800000000     0.601190000000    -0.00911388 
C416     C      0.026440000000     0.234050000000     0.599810000000     0.16807    
C417     C      0.604520000000     0.508970000000     0.781850000000    -0.0149963  
C418     C      0.604290000000     0.469100000000     0.738640000000    -0.0653039  
C419     C      0.633220000000     0.024500000000     0.767790000000    -0.00593066 
C420     C      0.636090000000     0.981620000000     0.727290000000     0.166438   
C421     C      0.856800000000     0.038190000000     0.748570000000    -0.0161203  
C422     C      0.855830000000     0.991570000000     0.784830000000    -0.0601009  
C423     C      0.883090000000     0.522380000000     0.729810000000    -0.00745057 
C424     C      0.882070000000     0.476000000000     0.766400000000     0.167747   
C425     C      0.529570000000     0.365150000000     0.759920000000    -0.0152657  
C426     C      0.482300000000     0.363140000000     0.725060000000    -0.0662127  
C427     C      0.012140000000     0.387950000000     0.781680000000    -0.00732963 
C428     C      0.965230000000     0.385680000000     0.746830000000     0.169316   
C429     C      0.513690000000     0.107760000000     0.716360000000    -0.0155974  
C430     C      0.974690000000     0.112400000000     0.760020000000    -0.0656653  
C431     C      0.530650000000     0.137140000000     0.728610000000    -0.0068377  
C432     C      0.991190000000     0.142120000000     0.771510000000     0.16349    
C433     C      0.555530000000     0.495270000000     0.255380000000     0.396816   
C434     C      0.932050000000     0.000770000000     0.250790000000     0.413308   
C435     C      0.496270000000     0.560710000000     0.245540000000     0.398182   
C436     C      0.990410000000     0.936760000000     0.260030000000     0.419552   
C437     C      0.508650000000     0.688920000000     0.242040000000     0.416057   
C438     C      0.507470000000     0.814180000000     0.242880000000     0.40062    
C439     C      0.510140000000     0.754400000000     0.180280000000     0.399642   
C440     C      0.506760000000     0.749600000000     0.303540000000     0.401933   
C441     C      0.807170000000     0.511650000000     0.261830000000     0.398536   
C442     C      0.683800000000     0.502660000000     0.253050000000     0.412729   
C443     C      0.748660000000     0.510880000000     0.195780000000     0.413531   
C444     C      0.741370000000     0.502890000000     0.318970000000     0.397631   
C445     C      0.755910000000     0.520300000000     0.069240000000     0.398883   
C446     C      0.748750000000     0.007120000000     0.446470000000     0.41756    
C447     C      0.751800000000     0.575820000000     0.000980000000     0.398263   
C448     C      0.753050000000     0.950920000000     0.514610000000     0.399419   
C449     C      0.506090000000     0.758850000000     0.052400000000     0.41937    
C450     C      0.997090000000     0.761250000000     0.429530000000     0.418316   
C451     C      0.562660000000     0.754000000000     0.985180000000     0.421444   
C452     C      0.940010000000     0.766590000000     0.495810000000     0.417593   
C453     C      0.812960000000     0.761640000000     0.990220000000     0.403671   
C454     C      0.689220000000     0.758510000000     0.991040000000     0.400017   
C455     C      0.754510000000     0.698870000000     0.978710000000     0.419746   
C456     C      0.748930000000     0.821740000000     0.001940000000     0.413144   
C457     C      0.861490000000     0.738140000000     0.009670000000    -0.0130821  
C458     C      0.862330000000     0.777480000000     0.465670000000    -0.0640117  
C459     C      0.891530000000     0.752390000000     0.022470000000    -0.00764905 
C460     C      0.890960000000     0.793480000000     0.480140000000     0.166156   
C461     C      0.639650000000     0.738970000000     0.012900000000    -0.0142606  
C462     C      0.640610000000     0.784320000000     0.474810000000    -0.0665179  
C463     C      0.611230000000     0.725260000000     0.995970000000    -0.00773353 
C464     C      0.611510000000     0.771100000000     0.459000000000     0.167146   
C465     C      0.781130000000     0.901000000000     0.006950000000    -0.0129169  
C466     C      0.730810000000     0.901640000000     0.036730000000    -0.0638616  
C467     C      0.769800000000     0.872980000000     0.488200000000    -0.00603035 
C468     C      0.722510000000     0.868840000000     0.523030000000     0.162784   
C469     C      0.724020000000     0.624550000000     0.985320000000    -0.0167771  
C470     C      0.778290000000     0.627070000000     0.008050000000    -0.0670781  
C471     C      0.733650000000     0.648550000000     0.460320000000    -0.00764605 
C472     C      0.787350000000     0.651180000000     0.483210000000     0.169654   
C473     C      0.717030000000     0.521280000000     0.367490000000    -0.0145192  
C474     C      0.752510000000     0.974070000000     0.367420000000    -0.0634623  
C475     C      0.730440000000     0.531550000000     0.398870000000    -0.00842435 
C476     C      0.768800000000     0.986320000000     0.396810000000     0.172442   
C477     C      0.783680000000     0.010540000000     0.118610000000    -0.022317   
C478     C      0.735570000000     0.544320000000     0.117450000000    -0.0652864  
C479     C      0.770530000000     0.992320000000     0.146410000000    -0.00134708 
C480     C      0.723370000000     0.527840000000     0.146760000000     0.165242   
C481     C      0.483490000000     0.728610000000     0.351700000000    -0.0145777  
C482     C      0.531480000000     0.762850000000     0.353250000000    -0.0642198  
C483     C      0.971410000000     0.744830000000     0.381170000000    -0.00781557 
C484     C      0.017250000000     0.782200000000     0.379650000000     0.167344   
C485     C      0.490840000000     0.782220000000     0.134260000000    -0.0146088  
C486     C      0.537900000000     0.747010000000     0.130960000000    -0.0647005  
C487     C      0.981610000000     0.772800000000     0.101190000000    -0.00911994 
C488     C      0.026440000000     0.734050000000     0.099810000000     0.168068   
C489     C      0.604520000000     0.008970000000     0.281850000000    -0.021046   
C490     C      0.604290000000     0.969100000000     0.238640000000    -0.0655845  
C491     C      0.633220000000     0.524500000000     0.267790000000    -0.00716741 
C492     C      0.636090000000     0.481620000000     0.227290000000     0.16428    
C493     C      0.856800000000     0.538190000000     0.248570000000    -0.0159738  
C494     C      0.855830000000     0.491570000000     0.284830000000    -0.0656229  
C495     C      0.883090000000     0.022390000000     0.229810000000    -0.0077978  
C496     C      0.882070000000     0.976000000000     0.266400000000     0.16838    
C497     C      0.529570000000     0.865160000000     0.259920000000    -0.0153364  
C498     C      0.482300000000     0.863140000000     0.225060000000    -0.0662275  
C499     C      0.012140000000     0.887950000000     0.281680000000    -0.00735955 
C500     C      0.965230000000     0.885680000000     0.246830000000     0.169305   
C501     C      0.513690000000     0.607760000000     0.216360000000    -0.0156381  
C502     C      0.974690000000     0.612400000000     0.260020000000    -0.0656741  
C503     C      0.530650000000     0.637140000000     0.228600000000    -0.00686245 
C504     C      0.991190000000     0.642120000000     0.271510000000     0.163488   
C505     C      0.555530000000     0.495270000000     0.755380000000     0.39682    
C506     C      0.932050000000     0.000770000000     0.750790000000     0.413558   
C507     C      0.496270000000     0.560710000000     0.745540000000     0.398186   
C508     C      0.990410000000     0.936760000000     0.760030000000     0.419558   
C509     C      0.508650000000     0.688920000000     0.742040000000     0.416054   
C510     C      0.507470000000     0.814180000000     0.742880000000     0.400618   
C511     C      0.510140000000     0.754400000000     0.680280000000     0.399636   
C512     C      0.506760000000     0.749600000000     0.803540000000     0.402001   
C513     C      0.807170000000     0.511650000000     0.761830000000     0.398535   
C514     C      0.683800000000     0.502660000000     0.753050000000     0.412731   
C515     C      0.748660000000     0.510880000000     0.695780000000     0.413529   
C516     C      0.741370000000     0.502890000000     0.818970000000     0.397748   
C517     C      0.755910000000     0.520300000000     0.569240000000     0.398834   
C518     C      0.748750000000     0.007120000000     0.946470000000     0.417588   
C519     C      0.751800000000     0.575820000000     0.500980000000     0.397848   
C520     C      0.753050000000     0.950920000000     0.014610000000     0.399532   
C521     C      0.506090000000     0.758850000000     0.552400000000     0.419421   
C522     C      0.997090000000     0.761250000000     0.929530000000     0.4183     
C523     C      0.562660000000     0.754000000000     0.485180000000     0.421531   
C524     C      0.940010000000     0.766590000000     0.995810000000     0.417535   
C525     C      0.812960000000     0.761640000000     0.490220000000     0.404142   
C526     C      0.689220000000     0.758510000000     0.491040000000     0.400512   
C527     C      0.754510000000     0.698870000000     0.478710000000     0.420247   
C528     C      0.748930000000     0.821740000000     0.501940000000     0.412345   
C529     C      0.861490000000     0.738140000000     0.509670000000    -0.0138641  
C530     C      0.862330000000     0.777480000000     0.965670000000    -0.0639427  
C531     C      0.891530000000     0.752390000000     0.522470000000    -0.00778274 
C532     C      0.890960000000     0.793480000000     0.980140000000     0.166107   
C533     C      0.639650000000     0.738970000000     0.512900000000    -0.0151212  
C534     C      0.640610000000     0.784320000000     0.974810000000    -0.0664927  
C535     C      0.611230000000     0.725260000000     0.495970000000    -0.00678504 
C536     C      0.611510000000     0.771100000000     0.959000000000     0.167081   
C537     C      0.781130000000     0.901000000000     0.506950000000    -0.0139617  
C538     C      0.730810000000     0.901640000000     0.536730000000    -0.0639254  
C539     C      0.769800000000     0.872980000000     0.988200000000    -0.00690333 
C540     C      0.722510000000     0.868840000000     0.023030000000     0.162781   
C541     C      0.724020000000     0.624550000000     0.485320000000    -0.0162465  
C542     C      0.778290000000     0.627070000000     0.508050000000    -0.0677829  
C543     C      0.733650000000     0.648550000000     0.960330000000    -0.00746198 
C544     C      0.787350000000     0.651180000000     0.983210000000     0.169252   
C545     C      0.717030000000     0.521280000000     0.867490000000    -0.0145168  
C546     C      0.752510000000     0.974070000000     0.867420000000    -0.0634346  
C547     C      0.730440000000     0.531550000000     0.898870000000    -0.00842638 
C548     C      0.768800000000     0.986320000000     0.896810000000     0.172411   
C549     C      0.783680000000     0.010540000000     0.618610000000    -0.0223033  
C550     C      0.735570000000     0.544320000000     0.617450000000    -0.0652537  
C551     C      0.770530000000     0.992320000000     0.646410000000    -0.00135889 
C552     C      0.723370000000     0.527840000000     0.646760000000     0.165123   
C553     C      0.483490000000     0.728610000000     0.851700000000    -0.0145612  
C554     C      0.531480000000     0.762850000000     0.853250000000    -0.0641762  
C555     C      0.971410000000     0.744830000000     0.881160000000    -0.00783882 
C556     C      0.017250000000     0.782200000000     0.879650000000     0.167214   
C557     C      0.490840000000     0.782220000000     0.634260000000    -0.0146119  
C558     C      0.537900000000     0.747010000000     0.630960000000    -0.0647017  
C559     C      0.981610000000     0.772800000000     0.601190000000    -0.00911595 
C560     C      0.026440000000     0.734050000000     0.599810000000     0.168071   
C561     C      0.604520000000     0.008970000000     0.781850000000    -0.0210267  
C562     C      0.604290000000     0.969100000000     0.738640000000    -0.06559    
C563     C      0.633220000000     0.524500000000     0.767790000000    -0.00716718 
C564     C      0.636090000000     0.481620000000     0.727290000000     0.164294   
C565     C      0.856800000000     0.538190000000     0.748570000000    -0.0159763  
C566     C      0.855830000000     0.491570000000     0.784830000000    -0.0656237  
C567     C      0.883090000000     0.022390000000     0.729810000000    -0.0077858  
C568     C      0.882070000000     0.976000000000     0.766400000000     0.168389   
C569     C      0.529570000000     0.865160000000     0.759920000000    -0.0152849  
C570     C      0.482300000000     0.863140000000     0.725060000000    -0.0662233  
C571     C      0.012140000000     0.887950000000     0.781680000000    -0.00737697 
C572     C      0.965230000000     0.885680000000     0.746830000000     0.169302   
C573     C      0.513690000000     0.607760000000     0.716360000000    -0.0156595  
C574     C      0.974690000000     0.612400000000     0.760020000000    -0.0656783  
C575     C      0.530650000000     0.637140000000     0.728610000000    -0.00680633 
C576     C      0.991190000000     0.642120000000     0.771510000000     0.163506   
Cu1      Cu     0.494600000000     0.995400000000     0.224550000000     0.846664   
Cu2      Cu     0.992960000000     0.501890000000     0.281130000000     0.848385   
Cu3      Cu     0.479440000000     0.251300000000     0.241160000000     0.855815   
Cu4      Cu     0.037130000000     0.251790000000     0.242650000000     0.84882    
Cu5      Cu     0.248120000000     0.478100000000     0.255720000000     0.845895   
Cu6      Cu     0.242920000000     0.035980000000     0.259030000000     0.844283   
Cu7      Cu     0.281010000000     0.013040000000     0.506220000000     0.848436   
Cu8      Cu     0.223540000000     0.513760000000     0.009510000000     0.838085   
Cu9      Cu     0.998520000000     0.231150000000     0.491120000000     0.842531   
Cu10     Cu     0.504170000000     0.289140000000     0.990890000000     0.86483    
Cu11     Cu     0.251360000000     0.254310000000     0.018650000000     0.848662   
Cu12     Cu     0.250830000000     0.266000000000     0.462430000000     0.851968   
Cu13     Cu     0.494600000000     0.995400000000     0.724550000000     0.846643   
Cu14     Cu     0.992960000000     0.501890000000     0.781130000000     0.848409   
Cu15     Cu     0.479440000000     0.251300000000     0.741160000000     0.855833   
Cu16     Cu     0.037130000000     0.251790000000     0.742650000000     0.848687   
Cu17     Cu     0.248120000000     0.478100000000     0.755720000000     0.845901   
Cu18     Cu     0.242920000000     0.035980000000     0.759030000000     0.844298   
Cu19     Cu     0.281010000000     0.013040000000     0.006220000000     0.848899   
Cu20     Cu     0.223540000000     0.513760000000     0.509500000000     0.837665   
Cu21     Cu     0.998520000000     0.231150000000     0.991120000000     0.842203   
Cu22     Cu     0.504170000000     0.289140000000     0.490890000000     0.865161   
Cu23     Cu     0.251360000000     0.254310000000     0.518650000000     0.848302   
Cu24     Cu     0.250830000000     0.266000000000     0.962430000000     0.851587   
Cu25     Cu     0.494600000000     0.495400000000     0.224550000000     0.838377   
Cu26     Cu     0.992960000000     0.001890000000     0.281130000000     0.840166   
Cu27     Cu     0.479440000000     0.751300000000     0.241160000000     0.855811   
Cu28     Cu     0.037130000000     0.751780000000     0.242650000000     0.848809   
Cu29     Cu     0.248120000000     0.978100000000     0.255720000000     0.847811   
Cu30     Cu     0.242920000000     0.535980000000     0.259030000000     0.847522   
Cu31     Cu     0.281010000000     0.513040000000     0.506220000000     0.8512     
Cu32     Cu     0.223540000000     0.013760000000     0.009510000000     0.835533   
Cu33     Cu     0.998520000000     0.731150000000     0.491120000000     0.842602   
Cu34     Cu     0.504170000000     0.789140000000     0.990890000000     0.865013   
Cu35     Cu     0.251360000000     0.754310000000     0.018650000000     0.848674   
Cu36     Cu     0.250830000000     0.765990000000     0.462430000000     0.851825   
Cu37     Cu     0.494600000000     0.495400000000     0.724550000000     0.838375   
Cu38     Cu     0.992960000000     0.001890000000     0.781130000000     0.840213   
Cu39     Cu     0.479440000000     0.751300000000     0.741160000000     0.85583    
Cu40     Cu     0.037130000000     0.751780000000     0.742650000000     0.848676   
Cu41     Cu     0.248120000000     0.978100000000     0.755720000000     0.847812   
Cu42     Cu     0.242920000000     0.535980000000     0.759030000000     0.847529   
Cu43     Cu     0.281010000000     0.513040000000     0.006220000000     0.85167    
Cu44     Cu     0.223540000000     0.013760000000     0.509500000000     0.83512    
Cu45     Cu     0.998520000000     0.731150000000     0.991120000000     0.842266   
Cu46     Cu     0.504170000000     0.789140000000     0.490890000000     0.865352   
Cu47     Cu     0.251360000000     0.754310000000     0.518650000000     0.848309   
Cu48     Cu     0.250830000000     0.765990000000     0.962430000000     0.851437   
Cu49     Cu     0.994600000000     0.995400000000     0.224550000000     0.843454   
Cu50     Cu     0.492960000000     0.501890000000     0.281130000000     0.850078   
Cu51     Cu     0.979440000000     0.251300000000     0.241160000000     0.854647   
Cu52     Cu     0.537130000000     0.251790000000     0.242650000000     0.846756   
Cu53     Cu     0.748120000000     0.478100000000     0.255720000000     0.845902   
Cu54     Cu     0.742920000000     0.035980000000     0.259030000000     0.844277   
Cu55     Cu     0.781010000000     0.013040000000     0.506220000000     0.848367   
Cu56     Cu     0.723540000000     0.513760000000     0.009510000000     0.838004   
Cu57     Cu     0.498520000000     0.231150000000     0.491120000000     0.847716   
Cu58     Cu     0.004170000000     0.289140000000     0.990890000000     0.868553   
Cu59     Cu     0.751360000000     0.254310000000     0.018650000000     0.848664   
Cu60     Cu     0.750830000000     0.266000000000     0.462430000000     0.851973   
Cu61     Cu     0.994600000000     0.995400000000     0.724550000000     0.843434   
Cu62     Cu     0.492960000000     0.501890000000     0.781130000000     0.850099   
Cu63     Cu     0.979440000000     0.251300000000     0.741160000000     0.854667   
Cu64     Cu     0.537130000000     0.251790000000     0.742650000000     0.846624   
Cu65     Cu     0.748120000000     0.478100000000     0.755720000000     0.845908   
Cu66     Cu     0.742920000000     0.035980000000     0.759030000000     0.844292   
Cu67     Cu     0.781010000000     0.013040000000     0.006220000000     0.848829   
Cu68     Cu     0.723540000000     0.513760000000     0.509500000000     0.837583   
Cu69     Cu     0.498520000000     0.231150000000     0.991120000000     0.847365   
Cu70     Cu     0.004170000000     0.289140000000     0.490890000000     0.868898   
Cu71     Cu     0.751360000000     0.254310000000     0.518650000000     0.848304   
Cu72     Cu     0.750830000000     0.266000000000     0.962430000000     0.851593   
Cu73     Cu     0.994600000000     0.495400000000     0.224550000000     0.835151   
Cu74     Cu     0.492960000000     0.001890000000     0.281130000000     0.841862   
Cu75     Cu     0.979440000000     0.751300000000     0.241160000000     0.854647   
Cu76     Cu     0.537130000000     0.751780000000     0.242650000000     0.846752   
Cu77     Cu     0.748120000000     0.978100000000     0.255720000000     0.847823   
Cu78     Cu     0.742920000000     0.535980000000     0.259030000000     0.847523   
Cu79     Cu     0.781010000000     0.513040000000     0.506220000000     0.851135   
Cu80     Cu     0.723540000000     0.013760000000     0.009510000000     0.835445   
Cu81     Cu     0.498520000000     0.731150000000     0.491120000000     0.847771   
Cu82     Cu     0.004170000000     0.789140000000     0.990890000000     0.868719   
Cu83     Cu     0.751360000000     0.754310000000     0.018650000000     0.848676   
Cu84     Cu     0.750830000000     0.765990000000     0.462430000000     0.851831   
Cu85     Cu     0.994600000000     0.495400000000     0.724550000000     0.835151   
Cu86     Cu     0.492960000000     0.001890000000     0.781130000000     0.841906   
Cu87     Cu     0.979440000000     0.751300000000     0.741160000000     0.854666   
Cu88     Cu     0.537130000000     0.751780000000     0.742650000000     0.84662    
Cu89     Cu     0.748120000000     0.978100000000     0.755720000000     0.847824   
Cu90     Cu     0.742920000000     0.535980000000     0.759030000000     0.84753    
Cu91     Cu     0.781010000000     0.513040000000     0.006220000000     0.851604   
Cu92     Cu     0.723540000000     0.013760000000     0.509500000000     0.835032   
Cu93     Cu     0.498520000000     0.731150000000     0.991120000000     0.847411   
Cu94     Cu     0.004170000000     0.789140000000     0.490890000000     0.869073   
Cu95     Cu     0.751360000000     0.754310000000     0.518650000000     0.848311   
Cu96     Cu     0.750830000000     0.765990000000     0.962430000000     0.851443   
H1       H      0.385120000000     0.269180000000     0.041270000000     0.0388378  
H2       H      0.346930000000     0.229460000000     0.029270000000     0.0495784  
H3       H      0.382850000000     0.312320000000     0.496340000000     0.00470623 
H4       H      0.347790000000     0.295650000000     0.453890000000     0.0561711  
H5       H      0.405970000000     0.233490000000     0.033180000000     0.0407682  
H6       H      0.367840000000     0.217300000000     0.995310000000     0.0456977  
H7       H      0.370240000000     0.260160000000     0.447920000000     0.0655155  
H8       H      0.399760000000     0.327180000000     0.450800000000     0.141482   
H9       H      0.119520000000     0.208410000000     0.477970000000     0.0404368  
H10      H      0.154120000000     0.219250000000     0.022040000000     0.0428812  
H11      H      0.119390000000     0.255800000000     0.439400000000     0.00599937 
H12      H      0.155490000000     0.296280000000     0.457220000000     0.0594429  
H13      H      0.096500000000     0.212160000000     0.012920000000     0.0453873  
H14      H      0.131360000000     0.253290000000     0.032920000000     0.0497955  
H15      H      0.133180000000     0.302530000000     0.991880000000     0.0657772  
H16      H      0.103070000000     0.303020000000     0.427670000000     0.14263    
H17      H      0.256720000000     0.381600000000     0.467550000000     0.0475549  
H18      H      0.296870000000     0.415310000000     0.492000000000     0.0485986  
H19      H      0.204280000000     0.372570000000     0.504890000000     0.00389514 
H20      H      0.209080000000     0.415560000000     0.039910000000     0.0575163  
H21      H      0.290400000000     0.359370000000     0.479880000000     0.0391143  
H22      H      0.294710000000     0.392310000000     0.027240000000     0.0452962  
H23      H      0.240970000000     0.398050000000     0.060250000000     0.0621996  
H24      H      0.188510000000     0.356030000000     0.050080000000     0.140798   
H25      H      0.241760000000     0.135400000000     0.439490000000     0.0395051  
H26      H      0.206610000000     0.108070000000     0.475160000000     0.0428917  
H27      H      0.297300000000     0.137980000000     0.463090000000     0.00405372 
H28      H      0.298980000000     0.112560000000     0.014170000000     0.0593974  
H29      H      0.213150000000     0.163200000000     0.453690000000     0.0357444  
H30      H      0.212670000000     0.137490000000     0.004750000000     0.0444509  
H31      H      0.271130000000     0.140070000000     0.029340000000     0.066429   
H32      H      0.330120000000     0.161350000000     0.494330000000     0.138499   
H33      H      0.247380000000     0.050930000000     0.394590000000     0.0389566  
H34      H      0.210490000000     0.042510000000     0.353760000000     0.0424613  
H35      H      0.288860000000     0.501500000000     0.389790000000     0.00657736 
H36      H      0.269740000000     0.461090000000     0.352900000000     0.0562433  
H37      H      0.211410000000     0.041510000000     0.413470000000     0.039371   
H38      H      0.195240000000     0.007840000000     0.372010000000     0.0407275  
H39      H      0.233720000000     0.457370000000     0.374290000000     0.0655477  
H40      H      0.299390000000     0.453580000000     0.405150000000     0.141251   
H41      H      0.257610000000     0.471360000000     0.137690000000     0.0431785  
H42      H      0.298230000000     0.494320000000     0.104370000000     0.0436008  
H43      H      0.207130000000     0.508770000000     0.139160000000     0.00481247 
H44      H      0.215590000000     0.051590000000     0.102620000000     0.0580392  
H45      H      0.290210000000     0.483900000000     0.161110000000     0.0401327  
H46      H      0.298770000000     0.029900000000     0.127420000000     0.0446717  
H47      H      0.247940000000     0.066180000000     0.124690000000     0.0631559  
H48      H      0.185980000000     0.051970000000     0.156160000000     0.139376   
H49      H      0.453580000000     0.262440000000     0.374040000000     0.042658   
H50      H      0.463460000000     0.221930000000     0.336650000000     0.0474968  
H51      H      0.503030000000     0.301680000000     0.369450000000     0.00696599 
H52      H      0.046360000000     0.278540000000     0.338750000000     0.0570371  
H53      H      0.459470000000     0.227190000000     0.396160000000     0.0433675  
H54      H      0.995250000000     0.206370000000     0.358800000000     0.041962   
H55      H      0.046430000000     0.243970000000     0.363290000000     0.0656602  
H56      H      0.548900000000     0.314040000000     0.387460000000     0.140895   
H57      H      0.462250000000     0.255410000000     0.102740000000     0.0380939  
H58      H      0.469410000000     0.286610000000     0.148170000000     0.0429214  
H59      H      0.511450000000     0.212990000000     0.104200000000     0.006212   
H60      H      0.050620000000     0.228070000000     0.143630000000     0.0563898  
H61      H      0.472320000000     0.293830000000     0.088770000000     0.0409454  
H62      H      0.003750000000     0.304940000000     0.132980000000     0.0437405  
H63      H      0.054340000000     0.266840000000     0.126650000000     0.0665     
H64      H      0.559000000000     0.204290000000     0.088480000000     0.140893   
H65      H      0.125640000000     0.043000000000     0.251080000000     0.0419985  
H66      H      0.090280000000     0.527440000000     0.293500000000     0.0440983  
H67      H      0.131540000000     0.997560000000     0.207150000000     0.00436918 
H68      H      0.090480000000     0.960890000000     0.218330000000     0.0579364  
H69      H      0.146570000000     0.536110000000     0.286810000000     0.0412409  
H70      H      0.112100000000     0.491570000000     0.299670000000     0.0443886  
H71      H      0.108550000000     0.448130000000     0.253590000000     0.0617682  
H72      H      0.147410000000     0.950120000000     0.196440000000     0.140252   
H73      H      0.372480000000     0.509070000000     0.210210000000     0.0417522  
H74      H      0.341960000000     0.052380000000     0.232630000000     0.0428243  
H75      H      0.371130000000     0.460470000000     0.248510000000     0.00741423 
H76      H      0.340380000000     0.473170000000     0.294980000000     0.0572817  
H77      H      0.398660000000     0.040890000000     0.220010000000     0.0389535  
H78      H      0.367510000000     0.054330000000     0.265920000000     0.0438684  
H79      H      0.366410000000     0.004910000000     0.304430000000     0.0605464  
H80      H      0.389810000000     0.437390000000     0.289570000000     0.14144    
H81      H      0.500580000000     0.373910000000     0.300220000000     0.0417167  
H82      H      0.045550000000     0.350120000000     0.273900000000     0.0418868  
H83      H      0.452380000000     0.371150000000     0.264260000000     0.00652092 
H84      H      0.465360000000     0.346840000000     0.213860000000     0.0574755  
H85      H      0.029180000000     0.404260000000     0.292740000000     0.0407165  
H86      H      0.043770000000     0.379280000000     0.243380000000     0.0437289  
H87      H      0.993480000000     0.377280000000     0.206350000000     0.064003   
H88      H      0.425250000000     0.391290000000     0.226310000000     0.139898   
H89      H      0.049600000000     0.129490000000     0.244540000000     0.0413116  
H90      H      0.031090000000     0.091420000000     0.205930000000     0.0421737  
H91      H      0.008550000000     0.134790000000     0.289440000000     0.00548427 
H92      H      0.464550000000     0.099550000000     0.280160000000     0.0588986  
H93      H      0.041310000000     0.150110000000     0.208780000000     0.0379411  
H94      H      0.497150000000     0.115150000000     0.197850000000     0.0439791  
H95      H      0.455010000000     0.119660000000     0.244780000000     0.0635173  
H96      H      0.465510000000     0.155410000000     0.306400000000     0.137899   
H97      H      0.385120000000     0.269180000000     0.541270000000     0.0387713  
H98      H      0.346930000000     0.229460000000     0.529270000000     0.0496536  
H99      H      0.382850000000     0.312320000000     0.996340000000     0.00461681 
H100     H      0.347790000000     0.295650000000     0.953880000000     0.0561287  
H101     H      0.405970000000     0.233490000000     0.533180000000     0.0406615  
H102     H      0.367840000000     0.217300000000     0.495310000000     0.0460884  
H103     H      0.370240000000     0.260160000000     0.947910000000     0.0654666  
H104     H      0.399760000000     0.327180000000     0.950800000000     0.141453   
H105     H      0.119520000000     0.208410000000     0.977970000000     0.0405461  
H106     H      0.154120000000     0.219250000000     0.522040000000     0.042958   
H107     H      0.119390000000     0.255800000000     0.939400000000     0.00600222 
H108     H      0.155490000000     0.296280000000     0.957220000000     0.0594042  
H109     H      0.096500000000     0.212160000000     0.512920000000     0.0448956  
H110     H      0.131360000000     0.253290000000     0.532920000000     0.0498669  
H111     H      0.133180000000     0.302530000000     0.491880000000     0.0658892  
H112     H      0.103070000000     0.303020000000     0.927680000000     0.142729   
H113     H      0.256720000000     0.381600000000     0.967550000000     0.047636   
H114     H      0.296870000000     0.415310000000     0.992000000000     0.0481009  
H115     H      0.204280000000     0.372570000000     0.004890000000     0.00403281 
H116     H      0.209080000000     0.415560000000     0.539910000000     0.0574873  
H117     H      0.290400000000     0.359370000000     0.979880000000     0.0392081  
H118     H      0.294710000000     0.392310000000     0.527240000000     0.0454211  
H119     H      0.240970000000     0.398050000000     0.560250000000     0.0622077  
H120     H      0.188510000000     0.356030000000     0.550080000000     0.140745   
H121     H      0.241760000000     0.135400000000     0.939480000000     0.0394315  
H122     H      0.206610000000     0.108070000000     0.975160000000     0.0428878  
H123     H      0.297300000000     0.137980000000     0.963090000000     0.00409063 
H124     H      0.298980000000     0.112560000000     0.514170000000     0.0594275  
H125     H      0.213150000000     0.163200000000     0.953680000000     0.0356419  
H126     H      0.212670000000     0.137490000000     0.504750000000     0.0440547  
H127     H      0.271130000000     0.140070000000     0.529340000000     0.0664942  
H128     H      0.330120000000     0.161350000000     0.994330000000     0.138418   
H129     H      0.247380000000     0.050930000000     0.894590000000     0.0389377  
H130     H      0.210490000000     0.042510000000     0.853760000000     0.0424573  
H131     H      0.288860000000     0.501500000000     0.889790000000     0.0065632  
H132     H      0.269740000000     0.461090000000     0.852890000000     0.0562304  
H133     H      0.211410000000     0.041510000000     0.913470000000     0.0393329  
H134     H      0.195240000000     0.007840000000     0.872010000000     0.0407125  
H135     H      0.233720000000     0.457370000000     0.874290000000     0.0655244  
H136     H      0.299390000000     0.453580000000     0.905150000000     0.141235   
H137     H      0.257610000000     0.471360000000     0.637690000000     0.0431749  
H138     H      0.298230000000     0.494320000000     0.604370000000     0.0435801  
H139     H      0.207130000000     0.508770000000     0.639160000000     0.00483196 
H140     H      0.215590000000     0.051590000000     0.602620000000     0.05801    
H141     H      0.290210000000     0.483900000000     0.661110000000     0.0401267  
H142     H      0.298770000000     0.029900000000     0.627420000000     0.0446551  
H143     H      0.247940000000     0.066180000000     0.624690000000     0.0631346  
H144     H      0.185980000000     0.051970000000     0.656160000000     0.139288   
H145     H      0.453580000000     0.262440000000     0.874040000000     0.0426635  
H146     H      0.463460000000     0.221930000000     0.836650000000     0.0474909  
H147     H      0.503030000000     0.301680000000     0.869450000000     0.00699011 
H148     H      0.046360000000     0.278540000000     0.838750000000     0.0570279  
H149     H      0.459470000000     0.227190000000     0.896160000000     0.0433643  
H150     H      0.995250000000     0.206370000000     0.858800000000     0.0419526  
H151     H      0.046430000000     0.243970000000     0.863290000000     0.0656445  
H152     H      0.548900000000     0.314040000000     0.887460000000     0.140797   
H153     H      0.462250000000     0.255410000000     0.602740000000     0.0380624  
H154     H      0.469410000000     0.286610000000     0.648170000000     0.0429107  
H155     H      0.511450000000     0.212990000000     0.604200000000     0.0061858  
H156     H      0.050620000000     0.228070000000     0.643630000000     0.0563825  
H157     H      0.472320000000     0.293830000000     0.588770000000     0.0408919  
H158     H      0.003750000000     0.304940000000     0.632980000000     0.0437206  
H159     H      0.054340000000     0.266840000000     0.626650000000     0.066481   
H160     H      0.559000000000     0.204290000000     0.588480000000     0.140866   
H161     H      0.125640000000     0.043000000000     0.751080000000     0.0419983  
H162     H      0.090280000000     0.527440000000     0.793500000000     0.0440902  
H163     H      0.131540000000     0.997560000000     0.707150000000     0.00436254 
H164     H      0.090480000000     0.960890000000     0.718330000000     0.0579277  
H165     H      0.146570000000     0.536110000000     0.786810000000     0.0412368  
H166     H      0.112100000000     0.491570000000     0.799670000000     0.0443792  
H167     H      0.108550000000     0.448130000000     0.753590000000     0.061764   
H168     H      0.147410000000     0.950120000000     0.696440000000     0.140369   
H169     H      0.372480000000     0.509070000000     0.710210000000     0.0417401  
H170     H      0.341960000000     0.052380000000     0.732630000000     0.0428213  
H171     H      0.371130000000     0.460470000000     0.748510000000     0.00740856 
H172     H      0.340380000000     0.473170000000     0.794980000000     0.0572778  
H173     H      0.398660000000     0.040890000000     0.720010000000     0.0389397  
H174     H      0.367510000000     0.054330000000     0.765920000000     0.0438651  
H175     H      0.366410000000     0.004910000000     0.804430000000     0.0605469  
H176     H      0.389810000000     0.437390000000     0.789570000000     0.141437   
H177     H      0.500580000000     0.373910000000     0.800220000000     0.0417147  
H178     H      0.045550000000     0.350120000000     0.773910000000     0.0418643  
H179     H      0.452380000000     0.371150000000     0.764260000000     0.00651973 
H180     H      0.465360000000     0.346840000000     0.713860000000     0.0574683  
H181     H      0.029180000000     0.404260000000     0.792740000000     0.0407143  
H182     H      0.043770000000     0.379280000000     0.743370000000     0.0437117  
H183     H      0.993480000000     0.377280000000     0.706350000000     0.0639892  
H184     H      0.425250000000     0.391290000000     0.726310000000     0.139892   
H185     H      0.049600000000     0.129490000000     0.744540000000     0.0412943  
H186     H      0.031090000000     0.091420000000     0.705930000000     0.0421683  
H187     H      0.008550000000     0.134790000000     0.789430000000     0.00546006 
H188     H      0.464550000000     0.099550000000     0.780160000000     0.0588952  
H189     H      0.041310000000     0.150110000000     0.708780000000     0.0379163  
H190     H      0.497150000000     0.115150000000     0.697850000000     0.0439697  
H191     H      0.455010000000     0.119660000000     0.744780000000     0.0635135  
H192     H      0.465510000000     0.155410000000     0.806400000000     0.137895   
H193     H      0.385120000000     0.769180000000     0.041270000000     0.0388924  
H194     H      0.346930000000     0.729460000000     0.029270000000     0.0495946  
H195     H      0.382850000000     0.812320000000     0.496340000000     0.00478435 
H196     H      0.347790000000     0.795650000000     0.453890000000     0.0562129  
H197     H      0.405970000000     0.733490000000     0.033180000000     0.0408237  
H198     H      0.367840000000     0.717300000000     0.995310000000     0.0457202  
H199     H      0.370240000000     0.760160000000     0.447920000000     0.0655354  
H200     H      0.399760000000     0.827170000000     0.450800000000     0.141741   
H201     H      0.119520000000     0.708410000000     0.477970000000     0.0404774  
H202     H      0.154120000000     0.719250000000     0.022040000000     0.0429027  
H203     H      0.119390000000     0.755790000000     0.439400000000     0.00603979 
H204     H      0.155490000000     0.796280000000     0.457220000000     0.0595121  
H205     H      0.096500000000     0.712160000000     0.012920000000     0.045445   
H206     H      0.131360000000     0.753290000000     0.032920000000     0.0498202  
H207     H      0.133180000000     0.802530000000     0.991880000000     0.0658669  
H208     H      0.103070000000     0.803020000000     0.427670000000     0.14271    
H209     H      0.256720000000     0.881600000000     0.467550000000     0.0477107  
H210     H      0.296870000000     0.915310000000     0.492000000000     0.0489115  
H211     H      0.204280000000     0.872570000000     0.504890000000     0.00404241 
H212     H      0.209080000000     0.915560000000     0.039910000000     0.0578744  
H213     H      0.290400000000     0.859370000000     0.479880000000     0.0391925  
H214     H      0.294710000000     0.892310000000     0.027240000000     0.0454744  
H215     H      0.240970000000     0.898050000000     0.060250000000     0.0624182  
H216     H      0.188510000000     0.856030000000     0.050080000000     0.140935   
H217     H      0.241760000000     0.635390000000     0.439490000000     0.039516   
H218     H      0.206610000000     0.608070000000     0.475160000000     0.0429678  
H219     H      0.297300000000     0.637980000000     0.463090000000     0.00411232 
H220     H      0.298980000000     0.612560000000     0.014170000000     0.0594829  
H221     H      0.213150000000     0.663200000000     0.453690000000     0.0357605  
H222     H      0.212670000000     0.637490000000     0.004750000000     0.0444988  
H223     H      0.271130000000     0.640070000000     0.029340000000     0.0664438  
H224     H      0.330120000000     0.661340000000     0.494330000000     0.138496   
H225     H      0.247380000000     0.550930000000     0.394590000000     0.0390457  
H226     H      0.210490000000     0.542510000000     0.353760000000     0.0424739  
H227     H      0.288860000000     0.001500000000     0.389790000000     0.00362859 
H228     H      0.269740000000     0.961100000000     0.352900000000     0.0565988  
H229     H      0.211410000000     0.541510000000     0.413470000000     0.0395082  
H230     H      0.195240000000     0.507840000000     0.372010000000     0.0414035  
H231     H      0.233720000000     0.957370000000     0.374290000000     0.0659996  
H232     H      0.299390000000     0.953580000000     0.405150000000     0.141935   
H233     H      0.257610000000     0.971360000000     0.137690000000     0.0426362  
H234     H      0.298230000000     0.994320000000     0.104370000000     0.0472932  
H235     H      0.207130000000     0.008770000000     0.139160000000     0.00394426 
H236     H      0.215590000000     0.551590000000     0.102620000000     0.0581118  
H237     H      0.290210000000     0.983900000000     0.161110000000     0.0396802  
H238     H      0.298770000000     0.529900000000     0.127420000000     0.0437035  
H239     H      0.247940000000     0.566180000000     0.124690000000     0.0630794  
H240     H      0.185980000000     0.551960000000     0.156160000000     0.139697   
H241     H      0.453580000000     0.762440000000     0.374040000000     0.0426947  
H242     H      0.463460000000     0.721930000000     0.336650000000     0.0474798  
H243     H      0.503030000000     0.801680000000     0.369450000000     0.00704401 
H244     H      0.046360000000     0.778550000000     0.338750000000     0.0570403  
H245     H      0.459470000000     0.727190000000     0.396160000000     0.0434086  
H246     H      0.995250000000     0.706370000000     0.358800000000     0.0419643  
H247     H      0.046430000000     0.743970000000     0.363290000000     0.0656639  
H248     H      0.548900000000     0.814050000000     0.387460000000     0.140788   
H249     H      0.462250000000     0.755410000000     0.102740000000     0.038125   
H250     H      0.469410000000     0.786620000000     0.148170000000     0.0429454  
H251     H      0.511450000000     0.712990000000     0.104200000000     0.00626807 
H252     H      0.050620000000     0.728070000000     0.143630000000     0.0564212  
H253     H      0.472320000000     0.793830000000     0.088770000000     0.0410222  
H254     H      0.003750000000     0.804940000000     0.132980000000     0.0437985  
H255     H      0.054340000000     0.766840000000     0.126650000000     0.066531   
H256     H      0.559000000000     0.704290000000     0.088480000000     0.140961   
H257     H      0.125640000000     0.543000000000     0.251080000000     0.0427139  
H258     H      0.090280000000     0.027440000000     0.293500000000     0.0448774  
H259     H      0.131540000000     0.497560000000     0.207150000000     0.00368173 
H260     H      0.090480000000     0.460890000000     0.218330000000     0.0577022  
H261     H      0.146570000000     0.036110000000     0.286810000000     0.0406996  
H262     H      0.112100000000     0.991570000000     0.299670000000     0.0478173  
H263     H      0.108550000000     0.948130000000     0.253590000000     0.0620822  
H264     H      0.147410000000     0.450120000000     0.196440000000     0.139927   
H265     H      0.372480000000     0.009070000000     0.210210000000     0.0409949  
H266     H      0.341960000000     0.552380000000     0.232630000000     0.0429092  
H267     H      0.371130000000     0.960470000000     0.248510000000     0.00790859 
H268     H      0.340380000000     0.973170000000     0.294980000000     0.0567167  
H269     H      0.398660000000     0.540890000000     0.220010000000     0.0390336  
H270     H      0.367510000000     0.554330000000     0.265920000000     0.0440124  
H271     H      0.366410000000     0.504910000000     0.304430000000     0.0636298  
H272     H      0.389810000000     0.937390000000     0.289570000000     0.141478   
H273     H      0.500580000000     0.873910000000     0.300220000000     0.0418512  
H274     H      0.045550000000     0.850120000000     0.273900000000     0.0419455  
H275     H      0.452380000000     0.871150000000     0.264260000000     0.00658849 
H276     H      0.465360000000     0.846840000000     0.213860000000     0.0575235  
H277     H      0.029180000000     0.904260000000     0.292740000000     0.0409515  
H278     H      0.043770000000     0.879280000000     0.243380000000     0.0437969  
H279     H      0.993480000000     0.877280000000     0.206350000000     0.0641048  
H280     H      0.425250000000     0.891290000000     0.226310000000     0.140002   
H281     H      0.049600000000     0.629490000000     0.244540000000     0.0413835  
H282     H      0.031090000000     0.591420000000     0.205930000000     0.0424785  
H283     H      0.008550000000     0.634790000000     0.289440000000     0.00553125 
H284     H      0.464550000000     0.599550000000     0.280160000000     0.0590178  
H285     H      0.041310000000     0.650110000000     0.208780000000     0.038002   
H286     H      0.497150000000     0.615150000000     0.197850000000     0.0441409  
H287     H      0.455010000000     0.619660000000     0.244780000000     0.063584   
H288     H      0.465510000000     0.655410000000     0.306400000000     0.137952   
H289     H      0.385120000000     0.769180000000     0.541270000000     0.0388246  
H290     H      0.346930000000     0.729460000000     0.529270000000     0.0496712  
H291     H      0.382850000000     0.812320000000     0.996340000000     0.00469191 
H292     H      0.347790000000     0.795650000000     0.953880000000     0.05617    
H293     H      0.405970000000     0.733490000000     0.533180000000     0.0407152  
H294     H      0.367840000000     0.717300000000     0.495310000000     0.0461188  
H295     H      0.370240000000     0.760160000000     0.947910000000     0.0654864  
H296     H      0.399760000000     0.827170000000     0.950800000000     0.14171    
H297     H      0.119520000000     0.708410000000     0.977970000000     0.0405888  
H298     H      0.154120000000     0.719250000000     0.522040000000     0.0429812  
H299     H      0.119390000000     0.755790000000     0.939400000000     0.00604277 
H300     H      0.155490000000     0.796280000000     0.957220000000     0.0594724  
H301     H      0.096500000000     0.712160000000     0.512920000000     0.0449445  
H302     H      0.131360000000     0.753290000000     0.532920000000     0.0498931  
H303     H      0.133180000000     0.802530000000     0.491880000000     0.0659822  
H304     H      0.103070000000     0.803020000000     0.927680000000     0.142809   
H305     H      0.256720000000     0.881600000000     0.967550000000     0.0477929  
H306     H      0.296870000000     0.915310000000     0.992000000000     0.0484012  
H307     H      0.204280000000     0.872570000000     0.004890000000     0.00418155 
H308     H      0.209080000000     0.915560000000     0.539910000000     0.0578453  
H309     H      0.290400000000     0.859370000000     0.979880000000     0.0392879  
H310     H      0.294710000000     0.892310000000     0.527240000000     0.0456023  
H311     H      0.240970000000     0.898050000000     0.560250000000     0.0624263  
H312     H      0.188510000000     0.856030000000     0.550080000000     0.140881   
H313     H      0.241760000000     0.635390000000     0.939480000000     0.0394418  
H314     H      0.206610000000     0.608070000000     0.975160000000     0.0429629  
H315     H      0.297300000000     0.637980000000     0.963090000000     0.00414979 
H316     H      0.298980000000     0.612560000000     0.514170000000     0.0595142  
H317     H      0.213150000000     0.663200000000     0.953680000000     0.0356565  
H318     H      0.212670000000     0.637490000000     0.504750000000     0.0440959  
H319     H      0.271130000000     0.640070000000     0.529340000000     0.0665102  
H320     H      0.330120000000     0.661340000000     0.994330000000     0.138412   
H321     H      0.247380000000     0.550930000000     0.894590000000     0.0390259  
H322     H      0.210490000000     0.542510000000     0.853760000000     0.0424696  
H323     H      0.288860000000     0.001500000000     0.889790000000     0.00362828 
H324     H      0.269740000000     0.961100000000     0.852890000000     0.0565845  
H325     H      0.211410000000     0.541510000000     0.913470000000     0.0394687  
H326     H      0.195240000000     0.507840000000     0.872010000000     0.0413856  
H327     H      0.233720000000     0.957370000000     0.874290000000     0.0659737  
H328     H      0.299390000000     0.953580000000     0.905150000000     0.141916   
H329     H      0.257610000000     0.971360000000     0.637690000000     0.0426334  
H330     H      0.298230000000     0.994320000000     0.604370000000     0.0472681  
H331     H      0.207130000000     0.008770000000     0.639160000000     0.00396503 
H332     H      0.215590000000     0.551590000000     0.602620000000     0.0580823  
H333     H      0.290210000000     0.983900000000     0.661110000000     0.0396745  
H334     H      0.298770000000     0.529900000000     0.627420000000     0.043688   
H335     H      0.247940000000     0.566180000000     0.624690000000     0.063058   
H336     H      0.185980000000     0.551960000000     0.656160000000     0.139608   
H337     H      0.453580000000     0.762440000000     0.874040000000     0.0427     
H338     H      0.463460000000     0.721930000000     0.836650000000     0.0474738  
H339     H      0.503030000000     0.801680000000     0.869450000000     0.00706774 
H340     H      0.046360000000     0.778550000000     0.838750000000     0.057031   
H341     H      0.459470000000     0.727190000000     0.896160000000     0.0434051  
H342     H      0.995250000000     0.706370000000     0.858800000000     0.0419546  
H343     H      0.046430000000     0.743970000000     0.863290000000     0.0656481  
H344     H      0.548900000000     0.814050000000     0.887460000000     0.140689   
H345     H      0.462250000000     0.755410000000     0.602740000000     0.038093   
H346     H      0.469410000000     0.786620000000     0.648170000000     0.0429345  
H347     H      0.511450000000     0.712990000000     0.604200000000     0.00624149 
H348     H      0.050620000000     0.728070000000     0.643630000000     0.0564137  
H349     H      0.472320000000     0.793830000000     0.588770000000     0.0409679  
H350     H      0.003750000000     0.804940000000     0.632980000000     0.0437784  
H351     H      0.054340000000     0.766840000000     0.626650000000     0.0665117  
H352     H      0.559000000000     0.704290000000     0.588480000000     0.140934   
H353     H      0.125640000000     0.543000000000     0.751080000000     0.0427119  
H354     H      0.090280000000     0.027440000000     0.793500000000     0.0448673  
H355     H      0.131540000000     0.497560000000     0.707150000000     0.00367617 
H356     H      0.090480000000     0.460890000000     0.718330000000     0.0576938  
H357     H      0.146570000000     0.036110000000     0.786810000000     0.0406973  
H358     H      0.112100000000     0.991570000000     0.799670000000     0.0477973  
H359     H      0.108550000000     0.948130000000     0.753590000000     0.0620771  
H360     H      0.147410000000     0.450120000000     0.696440000000     0.140045   
H361     H      0.372480000000     0.009070000000     0.710210000000     0.0409844  
H362     H      0.341960000000     0.552380000000     0.732630000000     0.042906   
H363     H      0.371130000000     0.960470000000     0.748510000000     0.00790177 
H364     H      0.340380000000     0.973170000000     0.794980000000     0.0567144  
H365     H      0.398660000000     0.540890000000     0.720010000000     0.0390197  
H366     H      0.367510000000     0.554330000000     0.765920000000     0.0440085  
H367     H      0.366410000000     0.504910000000     0.804430000000     0.0636206  
H368     H      0.389810000000     0.937390000000     0.789570000000     0.141475   
H369     H      0.500580000000     0.873910000000     0.800220000000     0.0418486  
H370     H      0.045550000000     0.850120000000     0.773910000000     0.0419228  
H371     H      0.452380000000     0.871150000000     0.764260000000     0.00658706 
H372     H      0.465360000000     0.846840000000     0.713860000000     0.0575161  
H373     H      0.029180000000     0.904260000000     0.792740000000     0.0409484  
H374     H      0.043770000000     0.879280000000     0.743370000000     0.0437796  
H375     H      0.993480000000     0.877280000000     0.706350000000     0.0640908  
H376     H      0.425250000000     0.891290000000     0.726310000000     0.139996   
H377     H      0.049600000000     0.629490000000     0.744540000000     0.0413661  
H378     H      0.031090000000     0.591420000000     0.705930000000     0.0424724  
H379     H      0.008550000000     0.634790000000     0.789430000000     0.00550673 
H380     H      0.464550000000     0.599550000000     0.780160000000     0.0590138  
H381     H      0.041310000000     0.650110000000     0.708780000000     0.037977   
H382     H      0.497150000000     0.615150000000     0.697850000000     0.0441312  
H383     H      0.455010000000     0.619660000000     0.744780000000     0.06358    
H384     H      0.465510000000     0.655410000000     0.806400000000     0.137948   
H385     H      0.885120000000     0.269180000000     0.041270000000     0.0387509  
H386     H      0.846930000000     0.229460000000     0.029270000000     0.0495503  
H387     H      0.882850000000     0.312320000000     0.496340000000     0.00461089 
H388     H      0.847790000000     0.295650000000     0.453890000000     0.0561468  
H389     H      0.905970000000     0.233490000000     0.033180000000     0.0406199  
H390     H      0.867840000000     0.217300000000     0.995310000000     0.0456626  
H391     H      0.870240000000     0.260160000000     0.447920000000     0.0654895  
H392     H      0.899760000000     0.327180000000     0.450800000000     0.141338   
H393     H      0.619520000000     0.208410000000     0.477970000000     0.0403291  
H394     H      0.654120000000     0.219250000000     0.022040000000     0.0428477  
H395     H      0.619390000000     0.255800000000     0.439400000000     0.00593683 
H396     H      0.655490000000     0.296280000000     0.457220000000     0.0594248  
H397     H      0.596510000000     0.212160000000     0.012920000000     0.0452662  
H398     H      0.631360000000     0.253290000000     0.032920000000     0.0497646  
H399     H      0.633180000000     0.302530000000     0.991880000000     0.0657394  
H400     H      0.603070000000     0.303020000000     0.427670000000     0.142589   
H401     H      0.756720000000     0.381600000000     0.467550000000     0.047546   
H402     H      0.796870000000     0.415310000000     0.492000000000     0.0485519  
H403     H      0.704280000000     0.372570000000     0.504890000000     0.00384924 
H404     H      0.709080000000     0.415560000000     0.039910000000     0.0574678  
H405     H      0.790400000000     0.359370000000     0.479880000000     0.0390918  
H406     H      0.794710000000     0.392310000000     0.027240000000     0.0452566  
H407     H      0.740970000000     0.398050000000     0.060250000000     0.0621793  
H408     H      0.688510000000     0.356030000000     0.050080000000     0.140755   
H409     H      0.741760000000     0.135400000000     0.439490000000     0.0394905  
H410     H      0.706610000000     0.108070000000     0.475160000000     0.0428396  
H411     H      0.797300000000     0.137980000000     0.463090000000     0.00403298 
H412     H      0.798980000000     0.112560000000     0.014170000000     0.0593582  
H413     H      0.713150000000     0.163200000000     0.453690000000     0.0357156  
H414     H      0.712670000000     0.137490000000     0.004750000000     0.0444171  
H415     H      0.771130000000     0.140070000000     0.029340000000     0.0664136  
H416     H      0.830120000000     0.161350000000     0.494330000000     0.138449   
H417     H      0.747380000000     0.050930000000     0.394590000000     0.0389444  
H418     H      0.710490000000     0.042510000000     0.353760000000     0.0424307  
H419     H      0.788860000000     0.501500000000     0.389790000000     0.00655188 
H420     H      0.769740000000     0.461090000000     0.352900000000     0.0562313  
H421     H      0.711410000000     0.041510000000     0.413470000000     0.0393271  
H422     H      0.695240000000     0.007840000000     0.372010000000     0.0406716  
H423     H      0.733720000000     0.457370000000     0.374290000000     0.0655289  
H424     H      0.799390000000     0.453580000000     0.405150000000     0.141207   
H425     H      0.757610000000     0.471360000000     0.137690000000     0.0431668  
H426     H      0.798230000000     0.494320000000     0.104370000000     0.0435581  
H427     H      0.707130000000     0.508770000000     0.139160000000     0.0047821  
H428     H      0.715590000000     0.051590000000     0.102620000000     0.0580029  
H429     H      0.790210000000     0.483900000000     0.161110000000     0.0401149  
H430     H      0.798770000000     0.029900000000     0.127420000000     0.0446369  
H431     H      0.747940000000     0.066180000000     0.124690000000     0.0631411  
H432     H      0.685980000000     0.051970000000     0.156160000000     0.139323   
H433     H      0.953580000000     0.262440000000     0.374040000000     0.0423478  
H434     H      0.963460000000     0.221930000000     0.336650000000     0.047578   
H435     H      0.003030000000     0.301680000000     0.369450000000     0.00728358 
H436     H      0.546360000000     0.278540000000     0.338750000000     0.0569881  
H437     H      0.959470000000     0.227190000000     0.396160000000     0.0432834  
H438     H      0.495250000000     0.206370000000     0.358800000000     0.0422408  
H439     H      0.546430000000     0.243970000000     0.363290000000     0.0652876  
H440     H      0.048900000000     0.314040000000     0.387460000000     0.141012   
H441     H      0.962250000000     0.255410000000     0.102740000000     0.037812   
H442     H      0.969410000000     0.286610000000     0.148170000000     0.0433483  
H443     H      0.011450000000     0.212990000000     0.104200000000     0.00672065 
H444     H      0.550620000000     0.228070000000     0.143630000000     0.0563564  
H445     H      0.972320000000     0.293830000000     0.088770000000     0.0404698  
H446     H      0.503750000000     0.304940000000     0.132980000000     0.0417129  
H447     H      0.554340000000     0.266840000000     0.126650000000     0.0664319  
H448     H      0.059000000000     0.204290000000     0.088480000000     0.141046   
H449     H      0.625640000000     0.043000000000     0.251080000000     0.0419287  
H450     H      0.590270000000     0.527440000000     0.293500000000     0.0439027  
H451     H      0.631540000000     0.997560000000     0.207150000000     0.00428537 
H452     H      0.590480000000     0.960890000000     0.218330000000     0.057762   
H453     H      0.646570000000     0.536110000000     0.286810000000     0.0411977  
H454     H      0.612100000000     0.491570000000     0.299670000000     0.0442714  
H455     H      0.608550000000     0.448130000000     0.253590000000     0.0616806  
H456     H      0.647400000000     0.950120000000     0.196440000000     0.140198   
H457     H      0.872480000000     0.509070000000     0.210210000000     0.0417047  
H458     H      0.841960000000     0.052380000000     0.232630000000     0.042806   
H459     H      0.871130000000     0.460470000000     0.248510000000     0.00739976 
H460     H      0.840380000000     0.473170000000     0.294980000000     0.0572594  
H461     H      0.898660000000     0.040890000000     0.220010000000     0.0388741  
H462     H      0.867510000000     0.054330000000     0.265920000000     0.0438427  
H463     H      0.866410000000     0.004910000000     0.304430000000     0.0604919  
H464     H      0.889810000000     0.437390000000     0.289570000000     0.141382   
H465     H      0.000580000000     0.373910000000     0.300220000000     0.04204    
H466     H      0.545550000000     0.350120000000     0.273900000000     0.0418123  
H467     H      0.952380000000     0.371150000000     0.264260000000     0.00615152 
H468     H      0.965360000000     0.346840000000     0.213860000000     0.0575045  
H469     H      0.529180000000     0.404260000000     0.292740000000     0.0405849  
H470     H      0.543770000000     0.379280000000     0.243380000000     0.0433428  
H471     H      0.493480000000     0.377280000000     0.206350000000     0.0643007  
H472     H      0.925250000000     0.391290000000     0.226310000000     0.13987    
H473     H      0.549600000000     0.129490000000     0.244540000000     0.0409414  
H474     H      0.531090000000     0.091420000000     0.205930000000     0.0425957  
H475     H      0.508550000000     0.134790000000     0.289440000000     0.00339009 
H476     H      0.964550000000     0.099550000000     0.280160000000     0.0585652  
H477     H      0.541310000000     0.150110000000     0.208780000000     0.0375339  
H478     H      0.997150000000     0.115150000000     0.197850000000     0.0418621  
H479     H      0.955010000000     0.119660000000     0.244780000000     0.0632121  
H480     H      0.965510000000     0.155410000000     0.306400000000     0.137488   
H481     H      0.885120000000     0.269180000000     0.541270000000     0.0386846  
H482     H      0.846930000000     0.229460000000     0.529270000000     0.049625   
H483     H      0.882850000000     0.312320000000     0.996340000000     0.00452285 
H484     H      0.847790000000     0.295650000000     0.953880000000     0.0561045  
H485     H      0.905970000000     0.233490000000     0.533180000000     0.0405138  
H486     H      0.867840000000     0.217300000000     0.495310000000     0.0460503  
H487     H      0.870240000000     0.260160000000     0.947910000000     0.0654408  
H488     H      0.899760000000     0.327180000000     0.950800000000     0.141309   
H489     H      0.619520000000     0.208410000000     0.977970000000     0.0404388  
H490     H      0.654120000000     0.219250000000     0.522040000000     0.0429244  
H491     H      0.619390000000     0.255800000000     0.939400000000     0.00593984 
H492     H      0.655490000000     0.296280000000     0.957220000000     0.0593863  
H493     H      0.596510000000     0.212160000000     0.512920000000     0.0447738  
H494     H      0.631360000000     0.253290000000     0.532920000000     0.0498358  
H495     H      0.633180000000     0.302530000000     0.491880000000     0.0658508  
H496     H      0.603070000000     0.303020000000     0.927680000000     0.142688   
H497     H      0.756720000000     0.381600000000     0.967550000000     0.0476267  
H498     H      0.796870000000     0.415310000000     0.992000000000     0.0480567  
H499     H      0.704280000000     0.372570000000     0.004890000000     0.00398713 
H500     H      0.709080000000     0.415560000000     0.539910000000     0.0574386  
H501     H      0.790400000000     0.359370000000     0.979880000000     0.0391854  
H502     H      0.794710000000     0.392310000000     0.527240000000     0.045381   
H503     H      0.740970000000     0.398050000000     0.560250000000     0.0621874  
H504     H      0.688510000000     0.356030000000     0.550080000000     0.140702   
H505     H      0.741760000000     0.135400000000     0.939480000000     0.039417   
H506     H      0.706610000000     0.108070000000     0.975160000000     0.042836   
H507     H      0.797300000000     0.137980000000     0.963090000000     0.00406985 
H508     H      0.798980000000     0.112560000000     0.514170000000     0.0593882  
H509     H      0.713150000000     0.163200000000     0.953680000000     0.0356133  
H510     H      0.712670000000     0.137490000000     0.504750000000     0.0440214  
H511     H      0.771130000000     0.140070000000     0.529340000000     0.0664785  
H512     H      0.830120000000     0.161350000000     0.994330000000     0.138369   
H513     H      0.747380000000     0.050930000000     0.894590000000     0.0389256  
H514     H      0.710490000000     0.042510000000     0.853760000000     0.0424268  
H515     H      0.788860000000     0.501500000000     0.889790000000     0.00653791 
H516     H      0.769740000000     0.461090000000     0.852890000000     0.0562184  
H517     H      0.711410000000     0.041510000000     0.913470000000     0.0392892  
H518     H      0.695240000000     0.007840000000     0.872010000000     0.0406568  
H519     H      0.733720000000     0.457370000000     0.874290000000     0.0655057  
H520     H      0.799390000000     0.453580000000     0.905150000000     0.141192   
H521     H      0.757610000000     0.471360000000     0.637690000000     0.0431631  
H522     H      0.798230000000     0.494320000000     0.604370000000     0.0435374  
H523     H      0.707130000000     0.508770000000     0.639160000000     0.00480151 
H524     H      0.715590000000     0.051590000000     0.602620000000     0.0579736  
H525     H      0.790210000000     0.483900000000     0.661110000000     0.0401089  
H526     H      0.798770000000     0.029900000000     0.627420000000     0.0446203  
H527     H      0.747940000000     0.066180000000     0.624690000000     0.0631198  
H528     H      0.685980000000     0.051970000000     0.656160000000     0.139234   
H529     H      0.953580000000     0.262440000000     0.874040000000     0.0423539  
H530     H      0.963460000000     0.221930000000     0.836650000000     0.0475719  
H531     H      0.003030000000     0.301680000000     0.869450000000     0.00730733 
H532     H      0.546360000000     0.278540000000     0.838750000000     0.056979   
H533     H      0.959470000000     0.227190000000     0.896160000000     0.0432805  
H534     H      0.495250000000     0.206370000000     0.858800000000     0.0422306  
H535     H      0.546430000000     0.243970000000     0.863290000000     0.0652729  
H536     H      0.048900000000     0.314040000000     0.887460000000     0.140913   
H537     H      0.962250000000     0.255410000000     0.602740000000     0.0377806  
H538     H      0.969410000000     0.286610000000     0.648170000000     0.0433379  
H539     H      0.011450000000     0.212990000000     0.604200000000     0.0066953  
H540     H      0.550620000000     0.228070000000     0.643630000000     0.056349   
H541     H      0.972320000000     0.293830000000     0.588770000000     0.0404162  
H542     H      0.503750000000     0.304940000000     0.632980000000     0.0416918  
H543     H      0.554340000000     0.266840000000     0.626650000000     0.0664128  
H544     H      0.059000000000     0.204290000000     0.588480000000     0.141019   
H545     H      0.625640000000     0.043000000000     0.751080000000     0.0419286  
H546     H      0.590270000000     0.527440000000     0.793500000000     0.0438949  
H547     H      0.631540000000     0.997560000000     0.707150000000     0.00427865 
H548     H      0.590480000000     0.960890000000     0.718330000000     0.0577532  
H549     H      0.646570000000     0.536110000000     0.786810000000     0.0411937  
H550     H      0.612100000000     0.491570000000     0.799670000000     0.0442622  
H551     H      0.608550000000     0.448130000000     0.753590000000     0.0616766  
H552     H      0.647400000000     0.950120000000     0.696440000000     0.140315   
H553     H      0.872480000000     0.509070000000     0.710210000000     0.0416927  
H554     H      0.841960000000     0.052380000000     0.732630000000     0.042803   
H555     H      0.871130000000     0.460470000000     0.748510000000     0.00739409 
H556     H      0.840380000000     0.473170000000     0.794980000000     0.0572556  
H557     H      0.898660000000     0.040890000000     0.720010000000     0.0388603  
H558     H      0.867510000000     0.054330000000     0.765920000000     0.0438395  
H559     H      0.866410000000     0.004910000000     0.804430000000     0.0604927  
H560     H      0.889810000000     0.437390000000     0.789570000000     0.141379   
H561     H      0.000580000000     0.373910000000     0.800220000000     0.0420376  
H562     H      0.545550000000     0.350120000000     0.773910000000     0.0417899  
H563     H      0.952380000000     0.371150000000     0.764260000000     0.00615082 
H564     H      0.965360000000     0.346840000000     0.713860000000     0.0574971  
H565     H      0.529180000000     0.404260000000     0.792740000000     0.0405829  
H566     H      0.543770000000     0.379280000000     0.743370000000     0.0433258  
H567     H      0.493480000000     0.377280000000     0.706350000000     0.0642868  
H568     H      0.925250000000     0.391290000000     0.726310000000     0.139864   
H569     H      0.549600000000     0.129490000000     0.744540000000     0.0409245  
H570     H      0.531090000000     0.091420000000     0.705930000000     0.0425899  
H571     H      0.508550000000     0.134790000000     0.789430000000     0.00336717 
H572     H      0.964550000000     0.099550000000     0.780160000000     0.0585622  
H573     H      0.541310000000     0.150110000000     0.708780000000     0.0375092  
H574     H      0.997150000000     0.115150000000     0.697850000000     0.0418535  
H575     H      0.955010000000     0.119660000000     0.744780000000     0.0632084  
H576     H      0.965510000000     0.155410000000     0.806400000000     0.137485   
H577     H      0.885120000000     0.769180000000     0.041270000000     0.0388057  
H578     H      0.846930000000     0.729460000000     0.029270000000     0.0495666  
H579     H      0.882850000000     0.812320000000     0.496340000000     0.00468948 
H580     H      0.847790000000     0.795650000000     0.453890000000     0.0561887  
H581     H      0.905970000000     0.733490000000     0.033180000000     0.0406757  
H582     H      0.867840000000     0.717300000000     0.995310000000     0.0456851  
H583     H      0.870240000000     0.760160000000     0.447920000000     0.0655095  
H584     H      0.899760000000     0.827170000000     0.450800000000     0.141597   
H585     H      0.619520000000     0.708410000000     0.477970000000     0.0403701  
H586     H      0.654120000000     0.719250000000     0.022040000000     0.0428693  
H587     H      0.619390000000     0.755790000000     0.439400000000     0.00597741 
H588     H      0.655490000000     0.796280000000     0.457220000000     0.0594944  
H589     H      0.596510000000     0.712160000000     0.012920000000     0.0453243  
H590     H      0.631360000000     0.753290000000     0.032920000000     0.0497896  
H591     H      0.633180000000     0.802530000000     0.991880000000     0.0658297  
H592     H      0.603070000000     0.803020000000     0.427670000000     0.14267    
H593     H      0.756720000000     0.881600000000     0.467550000000     0.0477022  
H594     H      0.796870000000     0.915310000000     0.492000000000     0.0488655  
H595     H      0.704280000000     0.872570000000     0.504890000000     0.00399714 
H596     H      0.709080000000     0.915560000000     0.039910000000     0.0578273  
H597     H      0.790400000000     0.859370000000     0.479880000000     0.0391702  
H598     H      0.794710000000     0.892310000000     0.027240000000     0.0454352  
H599     H      0.740970000000     0.898050000000     0.060250000000     0.0623985  
H600     H      0.688510000000     0.856030000000     0.050080000000     0.140893   
H601     H      0.741760000000     0.635390000000     0.439490000000     0.0395014  
H602     H      0.706610000000     0.608070000000     0.475160000000     0.0429159  
H603     H      0.797300000000     0.637980000000     0.463090000000     0.00409154 
H604     H      0.798980000000     0.612560000000     0.014170000000     0.0594437  
H605     H      0.713150000000     0.663200000000     0.453690000000     0.0357317  
H606     H      0.712670000000     0.637490000000     0.004750000000     0.0444651  
H607     H      0.771130000000     0.640070000000     0.029340000000     0.0664284  
H608     H      0.830120000000     0.661340000000     0.494330000000     0.138446   
H609     H      0.747380000000     0.550930000000     0.394590000000     0.0390335  
H610     H      0.710490000000     0.542510000000     0.353760000000     0.0424435  
H611     H      0.788860000000     0.001500000000     0.389790000000     0.00359799 
H612     H      0.769740000000     0.961100000000     0.352900000000     0.0565874  
H613     H      0.711410000000     0.541510000000     0.413470000000     0.0394646  
H614     H      0.695240000000     0.507840000000     0.372010000000     0.041349   
H615     H      0.733720000000     0.957370000000     0.374290000000     0.0659822  
H616     H      0.799390000000     0.953580000000     0.405150000000     0.141893   
H617     H      0.757610000000     0.971360000000     0.137690000000     0.0426237  
H618     H      0.798230000000     0.994320000000     0.104370000000     0.0472577  
H619     H      0.707130000000     0.008770000000     0.139160000000     0.00391206 
H620     H      0.715590000000     0.551590000000     0.102620000000     0.0580757  
H621     H      0.790210000000     0.983900000000     0.161110000000     0.0396614  
H622     H      0.798770000000     0.529900000000     0.127420000000     0.0436664  
H623     H      0.747940000000     0.566180000000     0.124690000000     0.0630644  
H624     H      0.685980000000     0.551960000000     0.156160000000     0.139644   
H625     H      0.953580000000     0.762440000000     0.374040000000     0.0423858  
H626     H      0.963460000000     0.721930000000     0.336650000000     0.0475606  
H627     H      0.003030000000     0.801680000000     0.369450000000     0.00735939 
H628     H      0.546360000000     0.778550000000     0.338750000000     0.0569916  
H629     H      0.959470000000     0.727190000000     0.396160000000     0.0433244  
H630     H      0.495250000000     0.706370000000     0.358800000000     0.0422433  
H631     H      0.546430000000     0.743970000000     0.363290000000     0.0652925  
H632     H      0.048900000000     0.814050000000     0.387460000000     0.140904   
H633     H      0.962250000000     0.755410000000     0.102740000000     0.037844   
H634     H      0.969410000000     0.786620000000     0.148170000000     0.0433703  
H635     H      0.011450000000     0.712990000000     0.104200000000     0.00677488 
H636     H      0.550620000000     0.728070000000     0.143630000000     0.056388   
H637     H      0.972320000000     0.793830000000     0.088770000000     0.0405486  
H638     H      0.503750000000     0.804940000000     0.132980000000     0.0417804  
H639     H      0.554340000000     0.766840000000     0.126650000000     0.0664635  
H640     H      0.059000000000     0.704290000000     0.088480000000     0.141114   
H641     H      0.625640000000     0.543000000000     0.251080000000     0.0426469  
H642     H      0.590270000000     0.027440000000     0.293500000000     0.0446839  
H643     H      0.631540000000     0.497560000000     0.207150000000     0.00359475 
H644     H      0.590480000000     0.460890000000     0.218330000000     0.0575257  
H645     H      0.646570000000     0.036110000000     0.286810000000     0.0406545  
H646     H      0.612100000000     0.991570000000     0.299670000000     0.0477139  
H647     H      0.608550000000     0.948130000000     0.253590000000     0.0619964  
H648     H      0.647400000000     0.450120000000     0.196440000000     0.139872   
H649     H      0.872480000000     0.009070000000     0.210210000000     0.0409469  
H650     H      0.841960000000     0.552380000000     0.232630000000     0.0428909  
H651     H      0.871130000000     0.960470000000     0.248510000000     0.0078949  
H652     H      0.840380000000     0.973170000000     0.294980000000     0.0566939  
H653     H      0.898660000000     0.540890000000     0.220010000000     0.0389542  
H654     H      0.867510000000     0.554330000000     0.265920000000     0.0439868  
H655     H      0.866410000000     0.504910000000     0.304430000000     0.0635788  
H656     H      0.889810000000     0.937390000000     0.289570000000     0.141421   
H657     H      0.000580000000     0.873910000000     0.300220000000     0.0421721  
H658     H      0.545550000000     0.850120000000     0.273900000000     0.0418717  
H659     H      0.952380000000     0.871150000000     0.264260000000     0.00622114 
H660     H      0.965360000000     0.846840000000     0.213860000000     0.0575521  
H661     H      0.529180000000     0.904260000000     0.292740000000     0.0408218  
H662     H      0.543770000000     0.879280000000     0.243380000000     0.0434137  
H663     H      0.493480000000     0.877280000000     0.206350000000     0.0644013  
H664     H      0.925250000000     0.891290000000     0.226310000000     0.139974   
H665     H      0.549600000000     0.629490000000     0.244540000000     0.0410142  
H666     H      0.531090000000     0.591420000000     0.205930000000     0.0429005  
H667     H      0.508550000000     0.634790000000     0.289440000000     0.00344142 
H668     H      0.964550000000     0.599550000000     0.280160000000     0.0586848  
H669     H      0.541310000000     0.650110000000     0.208780000000     0.0375956  
H670     H      0.997150000000     0.615150000000     0.197850000000     0.0420267  
H671     H      0.955010000000     0.619660000000     0.244780000000     0.0632794  
H672     H      0.965510000000     0.655410000000     0.306400000000     0.137541   
H673     H      0.885120000000     0.769180000000     0.541270000000     0.0387382  
H674     H      0.846930000000     0.729460000000     0.529270000000     0.0496426  
H675     H      0.882850000000     0.812320000000     0.996340000000     0.00459843 
H676     H      0.847790000000     0.795650000000     0.953880000000     0.056146   
H677     H      0.905970000000     0.733490000000     0.533180000000     0.0405678  
H678     H      0.867840000000     0.717300000000     0.495310000000     0.0460807  
H679     H      0.870240000000     0.760160000000     0.947910000000     0.0654606  
H680     H      0.899760000000     0.827170000000     0.950800000000     0.141567   
H681     H      0.619520000000     0.708410000000     0.977970000000     0.0404819  
H682     H      0.654120000000     0.719250000000     0.522040000000     0.0429477  
H683     H      0.619390000000     0.755790000000     0.939400000000     0.00598055 
H684     H      0.655490000000     0.796280000000     0.957220000000     0.0594548  
H685     H      0.596510000000     0.712160000000     0.512920000000     0.0448231  
H686     H      0.631360000000     0.753290000000     0.532920000000     0.0498623  
H687     H      0.633180000000     0.802530000000     0.491880000000     0.0659444  
H688     H      0.603070000000     0.803020000000     0.927680000000     0.142768   
H689     H      0.756720000000     0.881600000000     0.967550000000     0.0477841  
H690     H      0.796870000000     0.915310000000     0.992000000000     0.0483578  
H691     H      0.704280000000     0.872570000000     0.004890000000     0.00413651 
H692     H      0.709080000000     0.915560000000     0.539910000000     0.057798   
H693     H      0.790400000000     0.859370000000     0.979880000000     0.0392655  
H694     H      0.794710000000     0.892310000000     0.527240000000     0.0455626  
H695     H      0.740970000000     0.898050000000     0.560250000000     0.0624066  
H696     H      0.688510000000     0.856030000000     0.550080000000     0.140839   
H697     H      0.741760000000     0.635390000000     0.939480000000     0.0394274  
H698     H      0.706610000000     0.608070000000     0.975160000000     0.0429113  
H699     H      0.797300000000     0.637980000000     0.963090000000     0.00412898 
H700     H      0.798980000000     0.612560000000     0.514170000000     0.0594748  
H701     H      0.713150000000     0.663200000000     0.953680000000     0.035628   
H702     H      0.712670000000     0.637490000000     0.504750000000     0.0440627  
H703     H      0.771130000000     0.640070000000     0.529340000000     0.0664946  
H704     H      0.830120000000     0.661340000000     0.994330000000     0.138364   
H705     H      0.747380000000     0.550930000000     0.894590000000     0.0390139  
H706     H      0.710490000000     0.542510000000     0.853760000000     0.0424393  
H707     H      0.788860000000     0.001500000000     0.889790000000     0.00359786 
H708     H      0.769740000000     0.961100000000     0.852890000000     0.0565732  
H709     H      0.711410000000     0.541510000000     0.913470000000     0.0394254  
H710     H      0.695240000000     0.507840000000     0.872010000000     0.0413313  
H711     H      0.733720000000     0.957370000000     0.874290000000     0.0659564  
H712     H      0.799390000000     0.953580000000     0.905150000000     0.141874   
H713     H      0.757610000000     0.971360000000     0.637690000000     0.0426208  
H714     H      0.798230000000     0.994320000000     0.604370000000     0.0472328  
H715     H      0.707130000000     0.008770000000     0.639160000000     0.00393275 
H716     H      0.715590000000     0.551590000000     0.602620000000     0.0580461  
H717     H      0.790210000000     0.983900000000     0.661110000000     0.0396557  
H718     H      0.798770000000     0.529900000000     0.627420000000     0.0436509  
H719     H      0.747940000000     0.566180000000     0.624690000000     0.063043   
H720     H      0.685980000000     0.551960000000     0.656160000000     0.139555   
H721     H      0.953580000000     0.762440000000     0.874040000000     0.0423917  
H722     H      0.963460000000     0.721930000000     0.836650000000     0.0475544  
H723     H      0.003030000000     0.801680000000     0.869450000000     0.00738275 
H724     H      0.546360000000     0.778550000000     0.838750000000     0.0569824  
H725     H      0.959470000000     0.727190000000     0.896160000000     0.0433212  
H726     H      0.495250000000     0.706370000000     0.858800000000     0.0422328  
H727     H      0.546430000000     0.743970000000     0.863290000000     0.0652776  
H728     H      0.048900000000     0.814050000000     0.887460000000     0.140805   
H729     H      0.962250000000     0.755410000000     0.602740000000     0.0378121  
H730     H      0.969410000000     0.786620000000     0.648170000000     0.0433596  
H731     H      0.011450000000     0.712990000000     0.604200000000     0.00674916 
H732     H      0.550620000000     0.728070000000     0.643630000000     0.0563805  
H733     H      0.972320000000     0.793830000000     0.588770000000     0.0404942  
H734     H      0.503750000000     0.804940000000     0.632980000000     0.041759   
H735     H      0.554340000000     0.766840000000     0.626650000000     0.0664441  
H736     H      0.059000000000     0.704290000000     0.588480000000     0.141087   
H737     H      0.625640000000     0.543000000000     0.751080000000     0.0426449  
H738     H      0.590270000000     0.027440000000     0.793500000000     0.044674   
H739     H      0.631540000000     0.497560000000     0.707150000000     0.00358911 
H740     H      0.590480000000     0.460890000000     0.718330000000     0.0575172  
H741     H      0.646570000000     0.036110000000     0.786810000000     0.0406524  
H742     H      0.612100000000     0.991570000000     0.799670000000     0.047694   
H743     H      0.608550000000     0.948130000000     0.753590000000     0.0619913  
H744     H      0.647400000000     0.450120000000     0.696440000000     0.139989   
H745     H      0.872480000000     0.009070000000     0.710210000000     0.0409364  
H746     H      0.841960000000     0.552380000000     0.732630000000     0.0428878  
H747     H      0.871130000000     0.960470000000     0.748510000000     0.00788808 
H748     H      0.840380000000     0.973170000000     0.794980000000     0.0566916  
H749     H      0.898660000000     0.540890000000     0.720010000000     0.0389403  
H750     H      0.867510000000     0.554330000000     0.765920000000     0.043983   
H751     H      0.866410000000     0.504910000000     0.804430000000     0.0635698  
H752     H      0.889810000000     0.937390000000     0.789570000000     0.141418   
H753     H      0.000580000000     0.873910000000     0.800220000000     0.042169   
H754     H      0.545550000000     0.850120000000     0.773910000000     0.0418491  
H755     H      0.952380000000     0.871150000000     0.764260000000     0.00622019 
H756     H      0.965360000000     0.846840000000     0.713860000000     0.0575446  
H757     H      0.529180000000     0.904260000000     0.792740000000     0.0408189  
H758     H      0.543770000000     0.879280000000     0.743370000000     0.0433965  
H759     H      0.493480000000     0.877280000000     0.706350000000     0.0643873  
H760     H      0.925250000000     0.891290000000     0.726310000000     0.139968   
H761     H      0.549600000000     0.629490000000     0.744540000000     0.040997   
H762     H      0.531090000000     0.591420000000     0.705930000000     0.042894   
H763     H      0.508550000000     0.634790000000     0.789430000000     0.00341819 
H764     H      0.964550000000     0.599550000000     0.780160000000     0.0586813  
H765     H      0.541310000000     0.650110000000     0.708780000000     0.0375708  
H766     H      0.997150000000     0.615150000000     0.697850000000     0.0420178  
H767     H      0.955010000000     0.619660000000     0.744780000000     0.0632755  
H768     H      0.965510000000     0.655410000000     0.806400000000     0.137538   
N1       N      0.408530000000     0.269850000000     0.498260000000    -0.182928   
N2       N      0.344670000000     0.260760000000     0.489850000000    -0.158775   
N3       N      0.093980000000     0.250990000000     0.980920000000    -0.181126   
N4       N      0.157480000000     0.259350000000     0.991660000000    -0.159068   
N5       N      0.249240000000     0.353400000000     0.507480000000    -0.180102   
N6       N      0.253960000000     0.418850000000     0.517930000000    -0.158091   
N7       N      0.259290000000     0.167880000000     0.972320000000    -0.18367    
N8       N      0.251720000000     0.107850000000     0.997390000000    -0.159203   
N9       N      0.246840000000     0.505730000000     0.414920000000    -0.181683   
N10      N      0.238670000000     0.500650000000     0.350470000000    -0.15902    
N11      N      0.249080000000     0.012580000000     0.164120000000    -0.182168   
N12      N      0.257820000000     0.024130000000     0.100660000000    -0.158774   
N13      N      0.496400000000     0.261580000000     0.397880000000    -0.181238   
N14      N      0.506320000000     0.248330000000     0.335130000000    -0.159571   
N15      N      0.007490000000     0.258170000000     0.083950000000    -0.181471   
N16      N      0.011250000000     0.258640000000     0.148950000000    -0.158871   
N17      N      0.152020000000     0.000750000000     0.251330000000    -0.181292   
N18      N      0.087200000000     0.992600000000     0.257260000000    -0.157544   
N19      N      0.400320000000     0.500310000000     0.249860000000    -0.181535   
N20      N      0.338690000000     0.513870000000     0.264970000000    -0.159275   
N21      N      0.488300000000     0.404960000000     0.263700000000    -0.182182   
N22      N      0.506800000000     0.346270000000     0.242340000000    -0.160097   
N23      N      0.008550000000     0.157050000000     0.245760000000    -0.1818     
N24      N      0.996100000000     0.092630000000     0.241700000000    -0.160383   
N25      N      0.408530000000     0.269850000000     0.998260000000    -0.183078   
N26      N      0.344670000000     0.260760000000     0.989850000000    -0.158957   
N27      N      0.093980000000     0.250990000000     0.480910000000    -0.181215   
N28      N      0.157480000000     0.259350000000     0.491660000000    -0.158885   
N29      N      0.249240000000     0.353400000000     0.007480000000    -0.179961   
N30      N      0.253960000000     0.418850000000     0.017930000000    -0.158174   
N31      N      0.259290000000     0.167880000000     0.472320000000    -0.183719   
N32      N      0.251720000000     0.107850000000     0.497390000000    -0.158809   
N33      N      0.246840000000     0.505730000000     0.914920000000    -0.181707   
N34      N      0.238670000000     0.500650000000     0.850460000000    -0.159108   
N35      N      0.249080000000     0.012580000000     0.664120000000    -0.182149   
N36      N      0.257820000000     0.024130000000     0.600660000000    -0.158775   
N37      N      0.496400000000     0.261580000000     0.897880000000    -0.181214   
N38      N      0.506320000000     0.248330000000     0.835130000000    -0.159582   
N39      N      0.007490000000     0.258170000000     0.583950000000    -0.181501   
N40      N      0.011250000000     0.258640000000     0.648950000000    -0.158872   
N41      N      0.152020000000     0.000750000000     0.751330000000    -0.181292   
N42      N      0.087200000000     0.992600000000     0.757260000000    -0.15755    
N43      N      0.400320000000     0.500310000000     0.749860000000    -0.181584   
N44      N      0.338690000000     0.513870000000     0.764970000000    -0.159275   
N45      N      0.488300000000     0.404960000000     0.763700000000    -0.182183   
N46      N      0.506800000000     0.346270000000     0.742340000000    -0.160105   
N47      N      0.008550000000     0.157050000000     0.745760000000    -0.181812   
N48      N      0.996100000000     0.092630000000     0.741700000000    -0.160382   
N49      N      0.408530000000     0.769850000000     0.498260000000    -0.182905   
N50      N      0.344670000000     0.760760000000     0.489850000000    -0.158768   
N51      N      0.093980000000     0.750990000000     0.980920000000    -0.181104   
N52      N      0.157480000000     0.759350000000     0.991660000000    -0.159056   
N53      N      0.249240000000     0.853400000000     0.507480000000    -0.180098   
N54      N      0.253960000000     0.918840000000     0.517930000000    -0.157786   
N55      N      0.259290000000     0.667880000000     0.972320000000    -0.183671   
N56      N      0.251720000000     0.607850000000     0.997390000000    -0.159226   
N57      N      0.246840000000     0.005730000000     0.414920000000    -0.183398   
N58      N      0.238670000000     0.000650000000     0.350470000000    -0.159745   
N59      N      0.249080000000     0.512580000000     0.164120000000    -0.180862   
N60      N      0.257820000000     0.524130000000     0.100660000000    -0.15941    
N61      N      0.496400000000     0.761580000000     0.397880000000    -0.181214   
N62      N      0.506320000000     0.748330000000     0.335130000000    -0.159591   
N63      N      0.007490000000     0.758170000000     0.083950000000    -0.181455   
N64      N      0.011250000000     0.758640000000     0.148950000000    -0.158876   
N65      N      0.152020000000     0.500750000000     0.251330000000    -0.179995   
N66      N      0.087200000000     0.492600000000     0.257260000000    -0.159074   
N67      N      0.400320000000     0.000310000000     0.249860000000    -0.182265   
N68      N      0.338690000000     0.013870000000     0.264970000000    -0.160538   
N69      N      0.488300000000     0.904960000000     0.263700000000    -0.182072   
N70      N      0.506800000000     0.846270000000     0.242340000000    -0.160081   
N71      N      0.008550000000     0.657050000000     0.245760000000    -0.181806   
N72      N      0.996100000000     0.592630000000     0.241700000000    -0.160276   
N73      N      0.408530000000     0.769850000000     0.998260000000    -0.183058   
N74      N      0.344670000000     0.760760000000     0.989850000000    -0.158954   
N75      N      0.093980000000     0.750990000000     0.480910000000    -0.181194   
N76      N      0.157480000000     0.759350000000     0.491660000000    -0.15887    
N77      N      0.249240000000     0.853400000000     0.007480000000    -0.179952   
N78      N      0.253960000000     0.918840000000     0.017930000000    -0.157871   
N79      N      0.259290000000     0.667880000000     0.472320000000    -0.183722   
N80      N      0.251720000000     0.607850000000     0.497390000000    -0.158824   
N81      N      0.246840000000     0.005730000000     0.914920000000    -0.183413   
N82      N      0.238670000000     0.000650000000     0.850460000000    -0.159829   
N83      N      0.249080000000     0.512580000000     0.664120000000    -0.180844   
N84      N      0.257820000000     0.524130000000     0.600660000000    -0.15941    
N85      N      0.496400000000     0.761580000000     0.897880000000    -0.18119    
N86      N      0.506320000000     0.748330000000     0.835130000000    -0.159603   
N87      N      0.007490000000     0.758170000000     0.583950000000    -0.181485   
N88      N      0.011250000000     0.758640000000     0.648950000000    -0.158877   
N89      N      0.152020000000     0.500750000000     0.751330000000    -0.179998   
N90      N      0.087200000000     0.492600000000     0.757260000000    -0.159076   
N91      N      0.400320000000     0.000310000000     0.749860000000    -0.182311   
N92      N      0.338690000000     0.013870000000     0.764970000000    -0.160534   
N93      N      0.488300000000     0.904960000000     0.763700000000    -0.182073   
N94      N      0.506800000000     0.846270000000     0.742340000000    -0.16009    
N95      N      0.008550000000     0.657050000000     0.745760000000    -0.181817   
N96      N      0.996100000000     0.592630000000     0.741700000000    -0.160275   
N97      N      0.908530000000     0.269850000000     0.498260000000    -0.18299    
N98      N      0.844670000000     0.260760000000     0.489850000000    -0.158777   
N99      N      0.593980000000     0.250990000000     0.980920000000    -0.181195   
N100     N      0.657480000000     0.259350000000     0.991660000000    -0.159074   
N101     N      0.749240000000     0.353400000000     0.507480000000    -0.180074   
N102     N      0.753960000000     0.418850000000     0.517930000000    -0.158103   
N103     N      0.759290000000     0.167880000000     0.972320000000    -0.18367    
N104     N      0.751720000000     0.107850000000     0.997390000000    -0.15921    
N105     N      0.746840000000     0.505730000000     0.414920000000    -0.181692   
N106     N      0.738670000000     0.500650000000     0.350470000000    -0.159025   
N107     N      0.749080000000     0.012580000000     0.164120000000    -0.182172   
N108     N      0.757820000000     0.024130000000     0.100660000000    -0.158783   
N109     N      0.996400000000     0.261580000000     0.397880000000    -0.181911   
N110     N      0.006320000000     0.248330000000     0.335130000000    -0.158879   
N111     N      0.507490000000     0.258170000000     0.083950000000    -0.182269   
N112     N      0.511240000000     0.258640000000     0.148950000000    -0.159698   
N113     N      0.652020000000     0.000750000000     0.251330000000    -0.181312   
N114     N      0.587200000000     0.992600000000     0.257260000000    -0.157679   
N115     N      0.900320000000     0.500310000000     0.249860000000    -0.181528   
N116     N      0.838690000000     0.513870000000     0.264970000000    -0.159278   
N117     N      0.988300000000     0.404960000000     0.263700000000    -0.183123   
N118     N      0.006800000000     0.346270000000     0.242340000000    -0.159363   
N119     N      0.508550000000     0.157050000000     0.245760000000    -0.182842   
N120     N      0.496100000000     0.092630000000     0.241700000000    -0.159373   
N121     N      0.908530000000     0.269850000000     0.998260000000    -0.183138   
N122     N      0.844670000000     0.260760000000     0.989850000000    -0.158958   
N123     N      0.593980000000     0.250990000000     0.480910000000    -0.181284   
N124     N      0.657480000000     0.259350000000     0.491660000000    -0.158892   
N125     N      0.749240000000     0.353400000000     0.007480000000    -0.179934   
N126     N      0.753960000000     0.418850000000     0.017930000000    -0.158186   
N127     N      0.759290000000     0.167880000000     0.472320000000    -0.183719   
N128     N      0.751720000000     0.107850000000     0.497390000000    -0.158818   
N129     N      0.746840000000     0.505730000000     0.914920000000    -0.181716   
N130     N      0.738670000000     0.500650000000     0.850460000000    -0.159113   
N131     N      0.749080000000     0.012580000000     0.664120000000    -0.182153   
N132     N      0.757820000000     0.024130000000     0.600660000000    -0.158784   
N133     N      0.996400000000     0.261580000000     0.897880000000    -0.181886   
N134     N      0.006320000000     0.248330000000     0.835130000000    -0.158893   
N135     N      0.507490000000     0.258170000000     0.583950000000    -0.1823     
N136     N      0.511240000000     0.258640000000     0.648950000000    -0.1597     
N137     N      0.652020000000     0.000750000000     0.751330000000    -0.181312   
N138     N      0.587200000000     0.992600000000     0.757260000000    -0.157686   
N139     N      0.900320000000     0.500310000000     0.749860000000    -0.181577   
N140     N      0.838690000000     0.513870000000     0.764970000000    -0.159278   
N141     N      0.988300000000     0.404960000000     0.763700000000    -0.183123   
N142     N      0.006800000000     0.346270000000     0.742340000000    -0.159372   
N143     N      0.508550000000     0.157050000000     0.745760000000    -0.182853   
N144     N      0.496100000000     0.092630000000     0.741700000000    -0.159373   
N145     N      0.908530000000     0.769850000000     0.498260000000    -0.182967   
N146     N      0.844670000000     0.760760000000     0.489850000000    -0.158771   
N147     N      0.593980000000     0.750990000000     0.980920000000    -0.181173   
N148     N      0.657480000000     0.759350000000     0.991660000000    -0.159062   
N149     N      0.749240000000     0.853400000000     0.507480000000    -0.18007    
N150     N      0.753960000000     0.918840000000     0.517930000000    -0.157797   
N151     N      0.759290000000     0.667880000000     0.972320000000    -0.183671   
N152     N      0.751720000000     0.607850000000     0.997390000000    -0.159234   
N153     N      0.746840000000     0.005730000000     0.414920000000    -0.18341    
N154     N      0.738670000000     0.000650000000     0.350470000000    -0.159751   
N155     N      0.749080000000     0.512580000000     0.164120000000    -0.180862   
N156     N      0.757820000000     0.524130000000     0.100660000000    -0.159421   
N157     N      0.996400000000     0.761580000000     0.397880000000    -0.181885   
N158     N      0.006320000000     0.748330000000     0.335130000000    -0.158902   
N159     N      0.507490000000     0.758170000000     0.083950000000    -0.182249   
N160     N      0.511240000000     0.758640000000     0.148950000000    -0.1597     
N161     N      0.652020000000     0.500750000000     0.251330000000    -0.18001    
N162     N      0.587200000000     0.492600000000     0.257260000000    -0.159216   
N163     N      0.900320000000     0.000310000000     0.249860000000    -0.182258   
N164     N      0.838690000000     0.013870000000     0.264970000000    -0.160543   
N165     N      0.988300000000     0.904960000000     0.263700000000    -0.183008   
N166     N      0.006800000000     0.846270000000     0.242340000000    -0.159352   
N167     N      0.508550000000     0.657050000000     0.245760000000    -0.182846   
N168     N      0.496100000000     0.592630000000     0.241700000000    -0.159268   
N169     N      0.908530000000     0.769850000000     0.998260000000    -0.183118   
N170     N      0.844670000000     0.760760000000     0.989850000000    -0.158955   
N171     N      0.593980000000     0.750990000000     0.480910000000    -0.181263   
N172     N      0.657480000000     0.759350000000     0.491660000000    -0.158876   
N173     N      0.749240000000     0.853400000000     0.007480000000    -0.179925   
N174     N      0.753960000000     0.918840000000     0.017930000000    -0.157882   
N175     N      0.759290000000     0.667880000000     0.472320000000    -0.183722   
N176     N      0.751720000000     0.607850000000     0.497390000000    -0.158833   
N177     N      0.746840000000     0.005730000000     0.914920000000    -0.183426   
N178     N      0.738670000000     0.000650000000     0.850460000000    -0.159836   
N179     N      0.749080000000     0.512580000000     0.664120000000    -0.180845   
N180     N      0.757820000000     0.524130000000     0.600660000000    -0.15942    
N181     N      0.996400000000     0.761580000000     0.897880000000    -0.18186    
N182     N      0.006320000000     0.748330000000     0.835130000000    -0.158915   
N183     N      0.507490000000     0.758170000000     0.583950000000    -0.18228    
N184     N      0.511240000000     0.758640000000     0.648950000000    -0.159701   
N185     N      0.652020000000     0.500750000000     0.751330000000    -0.180013   
N186     N      0.587200000000     0.492600000000     0.757260000000    -0.159218   
N187     N      0.900320000000     0.000310000000     0.749860000000    -0.182305   
N188     N      0.838690000000     0.013870000000     0.764970000000    -0.160539   
N189     N      0.988300000000     0.904960000000     0.763700000000    -0.183008   
N190     N      0.006800000000     0.846270000000     0.742340000000    -0.159361   
N191     N      0.508550000000     0.657050000000     0.745760000000    -0.182856   
N192     N      0.496100000000     0.592630000000     0.741700000000    -0.159267   
O1       O      0.041380000000     0.988530000000     0.229920000000    -0.392886   
O2       O      0.447610000000     0.002780000000     0.225390000000    -0.392658   
O3       O      0.501590000000     0.042740000000     0.222160000000    -0.397328   
O4       O      0.987170000000     0.448860000000     0.232900000000    -0.381224   
O5       O      0.995760000000     0.454180000000     0.283780000000    -0.394767   
O6       O      0.490250000000     0.048920000000     0.272360000000    -0.396777   
O7       O      0.445980000000     0.498450000000     0.277050000000    -0.380053   
O8       O      0.040090000000     0.504130000000     0.279370000000    -0.396274   
O9       O      0.482620000000     0.203720000000     0.241180000000    -0.384185   
O10      O      0.481730000000     0.298900000000     0.241580000000    -0.401141   
O11      O      0.483670000000     0.253810000000     0.194180000000    -0.397102   
O12      O      0.481040000000     0.249160000000     0.288330000000    -0.391398   
O13      O      0.033050000000     0.251280000000     0.289450000000    -0.399051   
O14      O      0.035700000000     0.252500000000     0.195610000000    -0.398591   
O15      O      0.033720000000     0.299690000000     0.244190000000    -0.395984   
O16      O      0.034700000000     0.203790000000     0.241340000000    -0.397982   
O17      O      0.294410000000     0.484320000000     0.261980000000    -0.39786    
O18      O      0.200710000000     0.477810000000     0.250010000000    -0.374675   
O19      O      0.253430000000     0.484250000000     0.209140000000    -0.395469   
O20      O      0.243530000000     0.477630000000     0.302680000000    -0.394946   
O21      O      0.241400000000     0.030160000000     0.305980000000    -0.393843   
O22      O      0.243180000000     0.035780000000     0.211800000000    -0.377584   
O23      O      0.196380000000     0.029530000000     0.258360000000    -0.397595   
O24      O      0.290610000000     0.036770000000     0.259280000000    -0.392817   
O25      O      0.280880000000     0.016020000000     0.053380000000    -0.397135   
O26      O      0.275600000000     0.008850000000     0.459480000000    -0.389352   
O27      O      0.277810000000     0.060950000000     0.503230000000    -0.396779   
O28      O      0.278530000000     0.465760000000     0.009430000000    -0.396472   
O29      O      0.227050000000     0.465940000000     0.016560000000    -0.389905   
O30      O      0.225840000000     0.060900000000     0.502190000000    -0.396185   
O31      O      0.223600000000     0.508050000000     0.462590000000    -0.395363   
O32      O      0.229190000000     0.521170000000     0.055860000000    -0.395559   
O33      O      0.005420000000     0.232770000000     0.037440000000    -0.390879   
O34      O      0.992340000000     0.235310000000     0.444220000000    -0.395668   
O35      O      0.045510000000     0.229200000000     0.485610000000    -0.393652   
O36      O      0.452240000000     0.239040000000     0.997860000000    -0.400092   
O37      O      0.457010000000     0.291100000000     0.991710000000    -0.386768   
O38      O      0.050750000000     0.281560000000     0.488400000000    -0.37791    
O39      O      0.503180000000     0.286810000000     0.444160000000    -0.379246   
O40      O      0.504540000000     0.285460000000     0.038210000000    -0.397241   
O41      O      0.298430000000     0.257840000000     0.016010000000    -0.391713   
O42      O      0.204270000000     0.250400000000     0.015520000000    -0.393961   
O43      O      0.256360000000     0.208380000000     0.006890000000    -0.388442   
O44      O      0.246760000000     0.302110000000     0.024620000000    -0.376484   
O45      O      0.252210000000     0.312020000000     0.473950000000    -0.402948   
O46      O      0.249980000000     0.218260000000     0.456270000000    -0.39613    
O47      O      0.203680000000     0.266800000000     0.466250000000    -0.397848   
O48      O      0.298050000000     0.265390000000     0.464640000000    -0.395199   
O49      O      0.409340000000     0.306610000000     0.456360000000    -0.272726   
O50      O      0.093140000000     0.295880000000     0.447300000000    -0.262685   
O51      O      0.210430000000     0.349390000000     0.046600000000    -0.270228   
O52      O      0.309700000000     0.172370000000     0.994930000000    -0.278522   
O53      O      0.279420000000     0.460600000000     0.414550000000    -0.277314   
O54      O      0.207110000000     0.049660000000     0.165300000000    -0.27011    
O55      O      0.041420000000     0.294650000000     0.398020000000    -0.265718   
O56      O      0.052300000000     0.225560000000     0.081500000000    -0.277213   
O57      O      0.154720000000     0.956200000000     0.217510000000    -0.268667   
O58      O      0.400840000000     0.457710000000     0.286270000000    -0.267997   
O59      O      0.443990000000     0.404470000000     0.230160000000    -0.269737   
O60      O      0.469400000000     0.162890000000     0.284880000000    -0.273069   
O61      O      0.041380000000     0.988530000000     0.729920000000    -0.392894   
O62      O      0.447610000000     0.002780000000     0.725390000000    -0.392721   
O63      O      0.501590000000     0.042740000000     0.722160000000    -0.397333   
O64      O      0.987170000000     0.448860000000     0.732900000000    -0.381231   
O65      O      0.995760000000     0.454180000000     0.783780000000    -0.394775   
O66      O      0.490250000000     0.048920000000     0.772360000000    -0.396784   
O67      O      0.445980000000     0.498450000000     0.777040000000    -0.380217   
O68      O      0.040090000000     0.504130000000     0.779370000000    -0.396286   
O69      O      0.482620000000     0.203720000000     0.741180000000    -0.384189   
O70      O      0.481730000000     0.298900000000     0.741580000000    -0.401144   
O71      O      0.483670000000     0.253810000000     0.694180000000    -0.397105   
O72      O      0.481040000000     0.249160000000     0.788330000000    -0.391428   
O73      O      0.033050000000     0.251280000000     0.789460000000    -0.39902    
O74      O      0.035700000000     0.252500000000     0.695610000000    -0.398574   
O75      O      0.033720000000     0.299690000000     0.744190000000    -0.395973   
O76      O      0.034700000000     0.203790000000     0.741340000000    -0.397972   
O77      O      0.294410000000     0.484320000000     0.761980000000    -0.397862   
O78      O      0.200710000000     0.477810000000     0.750010000000    -0.374676   
O79      O      0.253430000000     0.484250000000     0.709140000000    -0.395469   
O80      O      0.243530000000     0.477630000000     0.802680000000    -0.394979   
O81      O      0.241400000000     0.030160000000     0.805980000000    -0.393877   
O82      O      0.243180000000     0.035780000000     0.711800000000    -0.377583   
O83      O      0.196380000000     0.029530000000     0.758360000000    -0.397597   
O84      O      0.290610000000     0.036770000000     0.759280000000    -0.392821   
O85      O      0.280880000000     0.016020000000     0.553380000000    -0.397075   
O86      O      0.275600000000     0.008850000000     0.959480000000    -0.389627   
O87      O      0.277810000000     0.060950000000     0.003230000000    -0.396791   
O88      O      0.278530000000     0.465760000000     0.509430000000    -0.396545   
O89      O      0.227050000000     0.465940000000     0.516560000000    -0.389918   
O90      O      0.225840000000     0.060900000000     0.002190000000    -0.396134   
O91      O      0.223600000000     0.508050000000     0.962590000000    -0.395579   
O92      O      0.229190000000     0.521170000000     0.555860000000    -0.395421   
O93      O      0.005420000000     0.232770000000     0.537440000000    -0.391171   
O94      O      0.992340000000     0.235310000000     0.944220000000    -0.395625   
O95      O      0.045510000000     0.229200000000     0.985610000000    -0.393704   
O96      O      0.452240000000     0.239040000000     0.497860000000    -0.400012   
O97      O      0.457010000000     0.291100000000     0.491710000000    -0.386738   
O98      O      0.050750000000     0.281560000000     0.988400000000    -0.377933   
O99      O      0.503180000000     0.286810000000     0.944160000000    -0.379194   
O100     O      0.504540000000     0.285460000000     0.538210000000    -0.397549   
O101     O      0.298430000000     0.257840000000     0.516010000000    -0.39207    
O102     O      0.204270000000     0.250400000000     0.515520000000    -0.394312   
O103     O      0.256360000000     0.208380000000     0.506890000000    -0.388843   
O104     O      0.246760000000     0.302110000000     0.524620000000    -0.376349   
O105     O      0.252210000000     0.312020000000     0.973960000000    -0.40343    
O106     O      0.249980000000     0.218260000000     0.956270000000    -0.396022   
O107     O      0.203680000000     0.266800000000     0.966250000000    -0.397764   
O108     O      0.298050000000     0.265390000000     0.964640000000    -0.395095   
O109     O      0.409340000000     0.306610000000     0.956360000000    -0.272724   
O110     O      0.093140000000     0.295880000000     0.947300000000    -0.262815   
O111     O      0.210430000000     0.349390000000     0.546600000000    -0.270245   
O112     O      0.309700000000     0.172370000000     0.494940000000    -0.278444   
O113     O      0.279420000000     0.460600000000     0.914550000000    -0.27736    
O114     O      0.207110000000     0.049660000000     0.665310000000    -0.269982   
O115     O      0.041420000000     0.294650000000     0.898030000000    -0.265578   
O116     O      0.052300000000     0.225560000000     0.581500000000    -0.277266   
O117     O      0.154720000000     0.956200000000     0.717500000000    -0.268798   
O118     O      0.400840000000     0.457710000000     0.786270000000    -0.268007   
O119     O      0.443990000000     0.404470000000     0.730160000000    -0.269743   
O120     O      0.469400000000     0.162890000000     0.784880000000    -0.273073   
O121     O      0.041380000000     0.488530000000     0.229920000000    -0.392053   
O122     O      0.447610000000     0.502780000000     0.225390000000    -0.39109    
O123     O      0.501590000000     0.542740000000     0.222160000000    -0.395136   
O124     O      0.987170000000     0.948860000000     0.232900000000    -0.381525   
O125     O      0.995760000000     0.954180000000     0.283780000000    -0.392631   
O126     O      0.490250000000     0.548920000000     0.272360000000    -0.39716    
O127     O      0.445980000000     0.998450000000     0.277050000000    -0.375166   
O128     O      0.040090000000     0.004130000000     0.279370000000    -0.398469   
O129     O      0.482620000000     0.703720000000     0.241180000000    -0.384187   
O130     O      0.481730000000     0.798900000000     0.241580000000    -0.401121   
O131     O      0.483670000000     0.753810000000     0.194180000000    -0.397085   
O132     O      0.481040000000     0.749160000000     0.288330000000    -0.391397   
O133     O      0.033050000000     0.751280000000     0.289450000000    -0.399044   
O134     O      0.035700000000     0.752500000000     0.195610000000    -0.398569   
O135     O      0.033720000000     0.799690000000     0.244190000000    -0.39588    
O136     O      0.034700000000     0.703790000000     0.241340000000    -0.398057   
O137     O      0.294410000000     0.984320000000     0.261980000000    -0.395267   
O138     O      0.200710000000     0.977810000000     0.250010000000    -0.372002   
O139     O      0.253430000000     0.984250000000     0.209140000000    -0.392834   
O140     O      0.243530000000     0.977630000000     0.302680000000    -0.392277   
O141     O      0.241400000000     0.530160000000     0.305980000000    -0.394655   
O142     O      0.243180000000     0.535780000000     0.211800000000    -0.378372   
O143     O      0.196380000000     0.529530000000     0.258360000000    -0.398392   
O144     O      0.290610000000     0.536770000000     0.259280000000    -0.393584   
O145     O      0.280880000000     0.516020000000     0.053380000000    -0.396698   
O146     O      0.275600000000     0.508850000000     0.459480000000    -0.3888     
O147     O      0.277810000000     0.560950000000     0.503230000000    -0.397124   
O148     O      0.278530000000     0.965760000000     0.009430000000    -0.39428    
O149     O      0.227050000000     0.965940000000     0.016560000000    -0.3877     
O150     O      0.225840000000     0.560900000000     0.502190000000    -0.39653    
O151     O      0.223600000000     0.008060000000     0.462590000000    -0.395785   
O152     O      0.229190000000     0.021170000000     0.055860000000    -0.395704   
O153     O      0.005420000000     0.732770000000     0.037440000000    -0.390842   
O154     O      0.992340000000     0.735310000000     0.444220000000    -0.395642   
O155     O      0.045510000000     0.729200000000     0.485610000000    -0.39362    
O156     O      0.452240000000     0.739040000000     0.997860000000    -0.400065   
O157     O      0.457010000000     0.791100000000     0.991710000000    -0.386699   
O158     O      0.050750000000     0.781560000000     0.488400000000    -0.37786    
O159     O      0.503180000000     0.786810000000     0.444160000000    -0.379198   
O160     O      0.504540000000     0.785460000000     0.038210000000    -0.397172   
O161     O      0.298430000000     0.757840000000     0.016010000000    -0.391695   
O162     O      0.204270000000     0.750400000000     0.015520000000    -0.393949   
O163     O      0.256360000000     0.708390000000     0.006890000000    -0.388485   
O164     O      0.246760000000     0.802120000000     0.024620000000    -0.376489   
O165     O      0.252210000000     0.812030000000     0.473950000000    -0.402803   
O166     O      0.249980000000     0.718260000000     0.456270000000    -0.396174   
O167     O      0.203680000000     0.766800000000     0.466250000000    -0.397815   
O168     O      0.298050000000     0.765390000000     0.464640000000    -0.395175   
O169     O      0.409340000000     0.806610000000     0.456360000000    -0.272817   
O170     O      0.093140000000     0.795880000000     0.447300000000    -0.262666   
O171     O      0.210430000000     0.849390000000     0.046600000000    -0.270198   
O172     O      0.309700000000     0.672370000000     0.994930000000    -0.278445   
O173     O      0.279420000000     0.960600000000     0.414550000000    -0.277576   
O174     O      0.207110000000     0.549660000000     0.165300000000    -0.270003   
O175     O      0.041420000000     0.794640000000     0.398020000000    -0.265464   
O176     O      0.052300000000     0.725560000000     0.081500000000    -0.277195   
O177     O      0.154720000000     0.456190000000     0.217510000000    -0.268705   
O178     O      0.400840000000     0.957710000000     0.286270000000    -0.267282   
O179     O      0.443990000000     0.904470000000     0.230160000000    -0.269446   
O180     O      0.469400000000     0.662890000000     0.284880000000    -0.27307    
O181     O      0.041380000000     0.488530000000     0.729920000000    -0.392064   
O182     O      0.447610000000     0.502780000000     0.725390000000    -0.391156   
O183     O      0.501590000000     0.542740000000     0.722160000000    -0.395145   
O184     O      0.987170000000     0.948860000000     0.732900000000    -0.38153    
O185     O      0.995760000000     0.954180000000     0.783780000000    -0.392646   
O186     O      0.490250000000     0.548920000000     0.772360000000    -0.397167   
O187     O      0.445980000000     0.998450000000     0.777040000000    -0.375342   
O188     O      0.040090000000     0.004130000000     0.779370000000    -0.398475   
O189     O      0.482620000000     0.703720000000     0.741180000000    -0.384191   
O190     O      0.481730000000     0.798900000000     0.741580000000    -0.401124   
O191     O      0.483670000000     0.753810000000     0.694180000000    -0.397088   
O192     O      0.481040000000     0.749160000000     0.788330000000    -0.391427   
O193     O      0.033050000000     0.751280000000     0.789460000000    -0.399013   
O194     O      0.035700000000     0.752500000000     0.695610000000    -0.398552   
O195     O      0.033720000000     0.799690000000     0.744190000000    -0.39587    
O196     O      0.034700000000     0.703790000000     0.741340000000    -0.398047   
O197     O      0.294410000000     0.984320000000     0.761980000000    -0.395276   
O198     O      0.200710000000     0.977810000000     0.750010000000    -0.372009   
O199     O      0.253430000000     0.984250000000     0.709140000000    -0.392839   
O200     O      0.243530000000     0.977630000000     0.802680000000    -0.392319   
O201     O      0.241400000000     0.530160000000     0.805980000000    -0.394687   
O202     O      0.243180000000     0.535780000000     0.711800000000    -0.378368   
O203     O      0.196380000000     0.529530000000     0.758360000000    -0.398392   
O204     O      0.290610000000     0.536770000000     0.759280000000    -0.393586   
O205     O      0.280880000000     0.516020000000     0.553380000000    -0.396637   
O206     O      0.275600000000     0.508850000000     0.959480000000    -0.389085   
O207     O      0.277810000000     0.560950000000     0.003230000000    -0.397137   
O208     O      0.278530000000     0.965760000000     0.509430000000    -0.394355   
O209     O      0.227050000000     0.965940000000     0.516560000000    -0.387714   
O210     O      0.225840000000     0.560900000000     0.002190000000    -0.39648    
O211     O      0.223600000000     0.008060000000     0.962590000000    -0.395993   
O212     O      0.229190000000     0.021170000000     0.555860000000    -0.395567   
O213     O      0.005420000000     0.732770000000     0.537440000000    -0.391139   
O214     O      0.992340000000     0.735310000000     0.944220000000    -0.395599   
O215     O      0.045510000000     0.729200000000     0.985610000000    -0.393673   
O216     O      0.452240000000     0.739040000000     0.497860000000    -0.399984   
O217     O      0.457010000000     0.791100000000     0.491710000000    -0.386668   
O218     O      0.050750000000     0.781560000000     0.988400000000    -0.377884   
O219     O      0.503180000000     0.786810000000     0.944160000000    -0.379145   
O220     O      0.504540000000     0.785460000000     0.538210000000    -0.397486   
O221     O      0.298430000000     0.757840000000     0.516010000000    -0.392059   
O222     O      0.204270000000     0.750400000000     0.515520000000    -0.394306   
O223     O      0.256360000000     0.708390000000     0.506890000000    -0.388894   
O224     O      0.246760000000     0.802120000000     0.524620000000    -0.376353   
O225     O      0.252210000000     0.812030000000     0.973960000000    -0.403292   
O226     O      0.249980000000     0.718260000000     0.956270000000    -0.396063   
O227     O      0.203680000000     0.766800000000     0.966250000000    -0.397729   
O228     O      0.298050000000     0.765390000000     0.964640000000    -0.395068   
O229     O      0.409340000000     0.806610000000     0.956360000000    -0.272814   
O230     O      0.093140000000     0.795880000000     0.947300000000    -0.262796   
O231     O      0.210430000000     0.849390000000     0.546600000000    -0.270216   
O232     O      0.309700000000     0.672370000000     0.494940000000    -0.278367   
O233     O      0.279420000000     0.960600000000     0.914550000000    -0.277622   
O234     O      0.207110000000     0.549660000000     0.665310000000    -0.269876   
O235     O      0.041420000000     0.794640000000     0.898030000000    -0.265325   
O236     O      0.052300000000     0.725560000000     0.581500000000    -0.277248   
O237     O      0.154720000000     0.456190000000     0.717500000000    -0.268835   
O238     O      0.400840000000     0.957710000000     0.786270000000    -0.267295   
O239     O      0.443990000000     0.904470000000     0.730160000000    -0.269452   
O240     O      0.469400000000     0.662890000000     0.784880000000    -0.273074   
O241     O      0.541380000000     0.988530000000     0.229920000000    -0.394288   
O242     O      0.947610000000     0.002780000000     0.225390000000    -0.392423   
O243     O      0.001590000000     0.042740000000     0.222160000000    -0.394313   
O244     O      0.487170000000     0.448860000000     0.232900000000    -0.381291   
O245     O      0.495760000000     0.454180000000     0.283780000000    -0.394326   
O246     O      0.990250000000     0.048920000000     0.272360000000    -0.396456   
O247     O      0.945980000000     0.498450000000     0.277050000000    -0.379849   
O248     O      0.540090000000     0.504130000000     0.279370000000    -0.397634   
O249     O      0.982620000000     0.203720000000     0.241180000000    -0.38582    
O250     O      0.981720000000     0.298900000000     0.241580000000    -0.402686   
O251     O      0.983670000000     0.253810000000     0.194180000000    -0.398786   
O252     O      0.981040000000     0.249160000000     0.288330000000    -0.393093   
O253     O      0.533050000000     0.251280000000     0.289450000000    -0.398542   
O254     O      0.535700000000     0.252500000000     0.195610000000    -0.39809    
O255     O      0.533720000000     0.299690000000     0.244190000000    -0.395529   
O256     O      0.534700000000     0.203790000000     0.241340000000    -0.397512   
O257     O      0.794410000000     0.484320000000     0.261980000000    -0.397862   
O258     O      0.700710000000     0.477810000000     0.250010000000    -0.374686   
O259     O      0.753430000000     0.484250000000     0.209140000000    -0.395473   
O260     O      0.743530000000     0.477630000000     0.302680000000    -0.39495    
O261     O      0.741400000000     0.030160000000     0.305980000000    -0.393846   
O262     O      0.743180000000     0.035780000000     0.211800000000    -0.377586   
O263     O      0.696380000000     0.029530000000     0.258360000000    -0.397604   
O264     O      0.790610000000     0.036770000000     0.259280000000    -0.392818   
O265     O      0.780880000000     0.016020000000     0.053380000000    -0.397164   
O266     O      0.775600000000     0.008850000000     0.459480000000    -0.389376   
O267     O      0.777810000000     0.060950000000     0.503230000000    -0.396801   
O268     O      0.778530000000     0.465760000000     0.009430000000    -0.396499   
O269     O      0.727050000000     0.465940000000     0.016560000000    -0.389932   
O270     O      0.725840000000     0.060900000000     0.502190000000    -0.396213   
O271     O      0.723600000000     0.508050000000     0.462590000000    -0.395396   
O272     O      0.729190000000     0.521170000000     0.055860000000    -0.395584   
O273     O      0.505420000000     0.232770000000     0.037440000000    -0.392473   
O274     O      0.492340000000     0.235310000000     0.444220000000    -0.396262   
O275     O      0.545510000000     0.229200000000     0.485610000000    -0.395038   
O276     O      0.952240000000     0.239040000000     0.997860000000    -0.39992    
O277     O      0.957010000000     0.291100000000     0.991710000000    -0.388083   
O278     O      0.550750000000     0.281560000000     0.488400000000    -0.377717   
O279     O      0.003180000000     0.286810000000     0.444160000000    -0.377557   
O280     O      0.004540000000     0.285460000000     0.038210000000    -0.396827   
O281     O      0.798430000000     0.257840000000     0.016010000000    -0.391722   
O282     O      0.704270000000     0.250400000000     0.015520000000    -0.393965   
O283     O      0.756360000000     0.208380000000     0.006890000000    -0.388446   
O284     O      0.746760000000     0.302110000000     0.024620000000    -0.376484   
O285     O      0.752210000000     0.312020000000     0.473950000000    -0.402949   
O286     O      0.749980000000     0.218260000000     0.456270000000    -0.396134   
O287     O      0.703680000000     0.266800000000     0.466250000000    -0.397853   
O288     O      0.798050000000     0.265390000000     0.464640000000    -0.395204   
O289     O      0.909340000000     0.306610000000     0.456360000000    -0.272902   
O290     O      0.593140000000     0.295880000000     0.447300000000    -0.26277    
O291     O      0.710430000000     0.349390000000     0.046600000000    -0.270232   
O292     O      0.809700000000     0.172370000000     0.994930000000    -0.278522   
O293     O      0.779420000000     0.460600000000     0.414550000000    -0.277326   
O294     O      0.707110000000     0.049660000000     0.165300000000    -0.270113   
O295     O      0.541420000000     0.294650000000     0.398020000000    -0.265748   
O296     O      0.552300000000     0.225560000000     0.081500000000    -0.277306   
O297     O      0.654710000000     0.956200000000     0.217510000000    -0.268727   
O298     O      0.900840000000     0.457710000000     0.286270000000    -0.268058   
O299     O      0.943990000000     0.404470000000     0.230160000000    -0.269841   
O300     O      0.969400000000     0.162890000000     0.284880000000    -0.272647   
O301     O      0.541380000000     0.988530000000     0.729920000000    -0.394296   
O302     O      0.947610000000     0.002780000000     0.725390000000    -0.392486   
O303     O      0.001590000000     0.042740000000     0.722160000000    -0.394319   
O304     O      0.487170000000     0.448860000000     0.732900000000    -0.381297   
O305     O      0.495760000000     0.454180000000     0.783780000000    -0.394335   
O306     O      0.990250000000     0.048920000000     0.772360000000    -0.396463   
O307     O      0.945980000000     0.498450000000     0.777040000000    -0.380013   
O308     O      0.540090000000     0.504130000000     0.779370000000    -0.397645   
O309     O      0.982620000000     0.203720000000     0.741180000000    -0.385823   
O310     O      0.981720000000     0.298900000000     0.741580000000    -0.402688   
O311     O      0.983670000000     0.253810000000     0.694180000000    -0.398789   
O312     O      0.981040000000     0.249160000000     0.788330000000    -0.39312    
O313     O      0.533050000000     0.251280000000     0.789460000000    -0.398512   
O314     O      0.535700000000     0.252500000000     0.695610000000    -0.398073   
O315     O      0.533720000000     0.299690000000     0.744190000000    -0.395519   
O316     O      0.534700000000     0.203790000000     0.741340000000    -0.397502   
O317     O      0.794410000000     0.484320000000     0.761980000000    -0.397864   
O318     O      0.700710000000     0.477810000000     0.750010000000    -0.374687   
O319     O      0.753430000000     0.484250000000     0.709140000000    -0.395473   
O320     O      0.743530000000     0.477630000000     0.802680000000    -0.394984   
O321     O      0.741400000000     0.030160000000     0.805980000000    -0.39388    
O322     O      0.743180000000     0.035780000000     0.711800000000    -0.377584   
O323     O      0.696380000000     0.029530000000     0.758360000000    -0.397606   
O324     O      0.790610000000     0.036770000000     0.759280000000    -0.392822   
O325     O      0.780880000000     0.016020000000     0.553380000000    -0.397104   
O326     O      0.775600000000     0.008850000000     0.959480000000    -0.389649   
O327     O      0.777810000000     0.060950000000     0.003230000000    -0.396813   
O328     O      0.778530000000     0.465760000000     0.509430000000    -0.396571   
O329     O      0.727050000000     0.465940000000     0.516560000000    -0.389944   
O330     O      0.725840000000     0.060900000000     0.002190000000    -0.396162   
O331     O      0.723600000000     0.508050000000     0.962590000000    -0.395611   
O332     O      0.729190000000     0.521170000000     0.555860000000    -0.395446   
O333     O      0.505420000000     0.232770000000     0.537440000000    -0.392771   
O334     O      0.492340000000     0.235310000000     0.944220000000    -0.396217   
O335     O      0.545510000000     0.229200000000     0.985610000000    -0.395085   
O336     O      0.952240000000     0.239040000000     0.497860000000    -0.399841   
O337     O      0.957010000000     0.291100000000     0.491710000000    -0.388058   
O338     O      0.550750000000     0.281560000000     0.988400000000    -0.37774    
O339     O      0.003180000000     0.286810000000     0.944160000000    -0.377511   
O340     O      0.004540000000     0.285460000000     0.538210000000    -0.397133   
O341     O      0.798430000000     0.257840000000     0.516010000000    -0.392078   
O342     O      0.704270000000     0.250400000000     0.515520000000    -0.394316   
O343     O      0.756360000000     0.208380000000     0.506890000000    -0.388846   
O344     O      0.746760000000     0.302110000000     0.524620000000    -0.376349   
O345     O      0.752210000000     0.312020000000     0.973960000000    -0.403431   
O346     O      0.749980000000     0.218260000000     0.956270000000    -0.396026   
O347     O      0.703680000000     0.266800000000     0.966250000000    -0.397769   
O348     O      0.798050000000     0.265390000000     0.964640000000    -0.3951     
O349     O      0.909340000000     0.306610000000     0.956360000000    -0.272899   
O350     O      0.593140000000     0.295880000000     0.947300000000    -0.262899   
O351     O      0.710430000000     0.349390000000     0.546600000000    -0.270249   
O352     O      0.809700000000     0.172370000000     0.494940000000    -0.278445   
O353     O      0.779420000000     0.460600000000     0.914550000000    -0.277371   
O354     O      0.707110000000     0.049660000000     0.665310000000    -0.269985   
O355     O      0.541420000000     0.294650000000     0.898030000000    -0.265608   
O356     O      0.552300000000     0.225560000000     0.581500000000    -0.277359   
O357     O      0.654710000000     0.956200000000     0.717500000000    -0.268857   
O358     O      0.900840000000     0.457710000000     0.786270000000    -0.268067   
O359     O      0.943990000000     0.404470000000     0.730160000000    -0.269847   
O360     O      0.969400000000     0.162890000000     0.784880000000    -0.272651   
O361     O      0.541380000000     0.488530000000     0.229920000000    -0.393465   
O362     O      0.947610000000     0.502780000000     0.225390000000    -0.390853   
O363     O      0.001590000000     0.542740000000     0.222160000000    -0.392122   
O364     O      0.487170000000     0.948860000000     0.232900000000    -0.381592   
O365     O      0.495760000000     0.954180000000     0.283780000000    -0.392195   
O366     O      0.990250000000     0.548920000000     0.272360000000    -0.39684    
O367     O      0.945980000000     0.998450000000     0.277050000000    -0.374958   
O368     O      0.540090000000     0.004130000000     0.279370000000    -0.399842   
O369     O      0.982620000000     0.703720000000     0.241180000000    -0.385817   
O370     O      0.981720000000     0.798900000000     0.241580000000    -0.402659   
O371     O      0.983670000000     0.753810000000     0.194180000000    -0.398762   
O372     O      0.981040000000     0.749160000000     0.288330000000    -0.393086   
O373     O      0.533050000000     0.751280000000     0.289450000000    -0.398538   
O374     O      0.535700000000     0.752500000000     0.195610000000    -0.39807    
O375     O      0.533720000000     0.799690000000     0.244190000000    -0.395428   
O376     O      0.534700000000     0.703790000000     0.241340000000    -0.397589   
O377     O      0.794410000000     0.984320000000     0.261980000000    -0.395265   
O378     O      0.700710000000     0.977810000000     0.250010000000    -0.372005   
O379     O      0.753430000000     0.984250000000     0.209140000000    -0.392831   
O380     O      0.743530000000     0.977630000000     0.302680000000    -0.392275   
O381     O      0.741400000000     0.530160000000     0.305980000000    -0.394661   
O382     O      0.743180000000     0.535780000000     0.211800000000    -0.378375   
O383     O      0.696380000000     0.529530000000     0.258360000000    -0.398403   
O384     O      0.790610000000     0.536770000000     0.259280000000    -0.393587   
O385     O      0.780880000000     0.516020000000     0.053380000000    -0.396727   
O386     O      0.775600000000     0.508850000000     0.459480000000    -0.388823   
O387     O      0.777810000000     0.560950000000     0.503230000000    -0.397147   
O388     O      0.778530000000     0.965760000000     0.009430000000    -0.394302   
O389     O      0.727050000000     0.965940000000     0.016560000000    -0.387721   
O390     O      0.725840000000     0.560900000000     0.502190000000    -0.396559   
O391     O      0.723600000000     0.008060000000     0.462590000000    -0.395819   
O392     O      0.729190000000     0.021170000000     0.055860000000    -0.395729   
O393     O      0.505420000000     0.732770000000     0.037440000000    -0.39243    
O394     O      0.492340000000     0.735310000000     0.444220000000    -0.396234   
O395     O      0.545510000000     0.729200000000     0.485610000000    -0.395002   
O396     O      0.952240000000     0.739040000000     0.997860000000    -0.399894   
O397     O      0.957010000000     0.791100000000     0.991710000000    -0.388008   
O398     O      0.550750000000     0.781560000000     0.488400000000    -0.377668   
O399     O      0.003180000000     0.786810000000     0.444160000000    -0.377516   
O400     O      0.004540000000     0.785460000000     0.038210000000    -0.39676    
O401     O      0.798430000000     0.757840000000     0.016010000000    -0.391704   
O402     O      0.704270000000     0.750400000000     0.015520000000    -0.393953   
O403     O      0.756360000000     0.708390000000     0.006890000000    -0.388489   
O404     O      0.746760000000     0.802120000000     0.024620000000    -0.37649    
O405     O      0.752210000000     0.812030000000     0.473950000000    -0.402804   
O406     O      0.749980000000     0.718260000000     0.456270000000    -0.396178   
O407     O      0.703680000000     0.766800000000     0.466250000000    -0.39782    
O408     O      0.798050000000     0.765390000000     0.464640000000    -0.395179   
O409     O      0.909340000000     0.806610000000     0.456360000000    -0.272992   
O410     O      0.593140000000     0.795880000000     0.447300000000    -0.26275    
O411     O      0.710430000000     0.849390000000     0.046600000000    -0.270203   
O412     O      0.809700000000     0.672370000000     0.994930000000    -0.278446   
O413     O      0.779420000000     0.960600000000     0.414550000000    -0.277588   
O414     O      0.707110000000     0.549660000000     0.165300000000    -0.270006   
O415     O      0.541420000000     0.794640000000     0.398020000000    -0.265495   
O416     O      0.552300000000     0.725560000000     0.081500000000    -0.277288   
O417     O      0.654710000000     0.456190000000     0.217510000000    -0.268764   
O418     O      0.900840000000     0.957710000000     0.286270000000    -0.267342   
O419     O      0.943990000000     0.904470000000     0.230160000000    -0.269549   
O420     O      0.969400000000     0.662890000000     0.284880000000    -0.272649   
O421     O      0.541380000000     0.488530000000     0.729920000000    -0.393475   
O422     O      0.947610000000     0.502780000000     0.725390000000    -0.390919   
O423     O      0.001590000000     0.542740000000     0.722160000000    -0.392133   
O424     O      0.487170000000     0.948860000000     0.732900000000    -0.381597   
O425     O      0.495760000000     0.954180000000     0.783780000000    -0.39221    
O426     O      0.990250000000     0.548920000000     0.772360000000    -0.396846   
O427     O      0.945980000000     0.998450000000     0.777040000000    -0.375134   
O428     O      0.540090000000     0.004130000000     0.779370000000    -0.399846   
O429     O      0.982620000000     0.703720000000     0.741180000000    -0.38582    
O430     O      0.981720000000     0.798900000000     0.741580000000    -0.40266    
O431     O      0.983670000000     0.753810000000     0.694180000000    -0.398766   
O432     O      0.981040000000     0.749160000000     0.788330000000    -0.393113   
O433     O      0.533050000000     0.751280000000     0.789460000000    -0.398507   
O434     O      0.535700000000     0.752500000000     0.695610000000    -0.398053   
O435     O      0.533720000000     0.799690000000     0.744190000000    -0.395418   
O436     O      0.534700000000     0.703790000000     0.741340000000    -0.397579   
O437     O      0.794410000000     0.984320000000     0.761980000000    -0.395274   
O438     O      0.700710000000     0.977810000000     0.750010000000    -0.372013   
O439     O      0.753430000000     0.984250000000     0.709140000000    -0.392836   
O440     O      0.743530000000     0.977630000000     0.802680000000    -0.392318   
O441     O      0.741400000000     0.530160000000     0.805980000000    -0.394692   
O442     O      0.743180000000     0.535780000000     0.711800000000    -0.378371   
O443     O      0.696380000000     0.529530000000     0.758360000000    -0.398403   
O444     O      0.790610000000     0.536770000000     0.759280000000    -0.393589   
O445     O      0.780880000000     0.516020000000     0.553380000000    -0.396666   
O446     O      0.775600000000     0.508850000000     0.959480000000    -0.389106   
O447     O      0.777810000000     0.560950000000     0.003230000000    -0.39716    
O448     O      0.778530000000     0.965760000000     0.509430000000    -0.394377   
O449     O      0.727050000000     0.965940000000     0.516560000000    -0.387735   
O450     O      0.725840000000     0.560900000000     0.002190000000    -0.396508   
O451     O      0.723600000000     0.008060000000     0.962590000000    -0.396026   
O452     O      0.729190000000     0.021170000000     0.555860000000    -0.395592   
O453     O      0.505420000000     0.732770000000     0.537440000000    -0.392734   
O454     O      0.492340000000     0.735310000000     0.944220000000    -0.396188   
O455     O      0.545510000000     0.729200000000     0.985610000000    -0.395049   
O456     O      0.952240000000     0.739040000000     0.497860000000    -0.399812   
O457     O      0.957010000000     0.791100000000     0.491710000000    -0.387982   
O458     O      0.550750000000     0.781560000000     0.988400000000    -0.377693   
O459     O      0.003180000000     0.786810000000     0.944160000000    -0.377469   
O460     O      0.004540000000     0.785460000000     0.538210000000    -0.397072   
O461     O      0.798430000000     0.757840000000     0.516010000000    -0.392067   
O462     O      0.704270000000     0.750400000000     0.515520000000    -0.39431    
O463     O      0.756360000000     0.708390000000     0.506890000000    -0.388897   
O464     O      0.746760000000     0.802120000000     0.524620000000    -0.376353   
O465     O      0.752210000000     0.812030000000     0.973960000000    -0.403292   
O466     O      0.749980000000     0.718260000000     0.956270000000    -0.396068   
O467     O      0.703680000000     0.766800000000     0.966250000000    -0.397735   
O468     O      0.798050000000     0.765390000000     0.964640000000    -0.395073   
O469     O      0.909340000000     0.806610000000     0.956360000000    -0.272989   
O470     O      0.593140000000     0.795880000000     0.947300000000    -0.26288    
O471     O      0.710430000000     0.849390000000     0.546600000000    -0.27022    
O472     O      0.809700000000     0.672370000000     0.494940000000    -0.278368   
O473     O      0.779420000000     0.960600000000     0.914550000000    -0.277634   
O474     O      0.707110000000     0.549660000000     0.665310000000    -0.269879   
O475     O      0.541420000000     0.794640000000     0.898030000000    -0.265356   
O476     O      0.552300000000     0.725560000000     0.581500000000    -0.277341   
O477     O      0.654710000000     0.456190000000     0.717500000000    -0.268895   
O478     O      0.900840000000     0.957710000000     0.786270000000    -0.267354   
O479     O      0.943990000000     0.904470000000     0.730160000000    -0.269555   
O480     O      0.969400000000     0.662890000000     0.784880000000    -0.272652   


