data_structure

_audit_creation_method RASPA-1.0
_audit_creation_date 2023-5-22
_audit_author_name 'Poobodin Mano'

_cell_length_a    42.7527
_cell_length_b    43.0092
_cell_length_c    43.3179
_cell_angle_alpha 89.9999
_cell_angle_beta  89.9998
_cell_angle_gamma 90
_cell_volume      79651.2

_symmetry_cell_setting          triclinic
_symmetry_space_group_name_Hall 'P 1'
_symmetry_space_group_name_H-M  'P 1'
_symmetry_Int_Tables_number     1

_symmetry_equiv_pos_as_xyz 'x,y,z'

loop_
_atom_site_label
_atom_site_type_symbol
_atom_site_fract_x
_atom_site_fract_y
_atom_site_fract_z
_atom_site_charge
C1       C      0.995710000000     0.061880000000     0.237990000000     0.402061   
C2       C      0.002370000000     0.438220000000     0.243140000000     0.396737   
C3       C      0.999270000000     0.002420000000     0.302690000000     0.403531   
C4       C      0.998100000000     0.497920000000     0.179910000000     0.40285    
C5       C      0.997120000000     0.188690000000     0.250660000000     0.401958   
C6       C      0.003540000000     0.312230000000     0.258220000000     0.39729    
C7       C      0.005920000000     0.254060000000     0.192700000000     0.398479   
C8       C      0.995480000000     0.246550000000     0.314680000000     0.4048     
C9       C      0.255500000000     0.065040000000     0.253890000000     0.399756   
C10      C      0.254740000000     0.441250000000     0.251820000000     0.399854   
C11      C      0.255970000000     0.001950000000     0.313570000000     0.400862   
C12      C      0.254970000000     0.504060000000     0.190760000000     0.39901    
C13      C      0.254510000000     0.191420000000     0.239420000000     0.39979    
C14      C      0.253760000000     0.315190000000     0.236660000000     0.399756   
C15      C      0.256010000000     0.252130000000     0.177470000000     0.401      
C16      C      0.251540000000     0.255040000000     0.299980000000     0.400716   
C17      C      0.438980000000     0.498490000000     0.484870000000     0.400274   
C18      C      0.062960000000     0.493980000000     0.496260000000     0.400372   
C19      C      0.006450000000     0.494560000000     0.428600000000     0.400082   
C20      C      0.996360000000     0.497650000000     0.051020000000     0.400433   
C21      C      0.441820000000     0.247920000000     0.511040000000     0.400577   
C22      C      0.065290000000     0.251530000000     0.494280000000     0.398574   
C23      C      0.995640000000     0.245660000000     0.442770000000     0.401779   
C24      C      0.010770000000     0.253970000000     0.064210000000     0.400811   
C25      C      0.191190000000     0.493690000000     0.497810000000     0.3998     
C26      C      0.315240000000     0.497060000000     0.507950000000     0.399652   
C27      C      0.257330000000     0.496790000000     0.442460000000     0.399524   
C28      C      0.248180000000     0.494090000000     0.064910000000     0.398958   
C29      C      0.194130000000     0.251610000000     0.989900000000     0.398332   
C30      C      0.318660000000     0.248630000000     0.986710000000     0.400026   
C31      C      0.255950000000     0.248860000000     0.426180000000     0.400695   
C32      C      0.257710000000     0.251210000000     0.048730000000     0.401024   
C33      C      0.368480000000     0.218660000000     0.486530000000    -0.0124328  
C34      C      0.369040000000     0.277090000000     0.488340000000    -0.01156    
C35      C      0.392160000000     0.217780000000     0.013200000000    -0.0133241  
C36      C      0.391360000000     0.275870000000     0.015780000000    -0.0126278  
C37      C      0.114090000000     0.222860000000     0.482770000000    -0.0115082  
C38      C      0.113310000000     0.281030000000     0.480370000000    -0.0120387  
C39      C      0.144820000000     0.223690000000     0.000540000000    -0.0159027  
C40      C      0.145290000000     0.282110000000     0.996500000000    -0.0107805  
C41      C      0.365010000000     0.027060000000     0.511050000000    -0.0119562  
C42      C      0.365770000000     0.468830000000     0.007760000000    -0.0127088  
C43      C      0.389300000000     0.028790000000     0.484920000000    -0.0116524  
C44      C      0.388390000000     0.470690000000     0.980610000000    -0.00997604 
C45      C      0.141960000000     0.521800000000     0.487030000000    -0.0116196  
C46      C      0.142500000000     0.463410000000     0.988950000000    -0.0101874  
C47      C      0.112290000000     0.022150000000     0.506410000000    -0.010919   
C48      C      0.111410000000     0.963790000000     0.006670000000    -0.0152089  
C49      C      0.243610000000     0.277860000000     0.096870000000    -0.0113351  
C50      C      0.272860000000     0.226300000000     0.097580000000    -0.0112683  
C51      C      0.231600000000     0.266920000000     0.128360000000    -0.0113151  
C52      C      0.283260000000     0.237470000000     0.129620000000    -0.0115216  
C53      C      0.281680000000     0.266240000000     0.378570000000    -0.011248   
C54      C      0.239940000000     0.224830000000     0.377080000000    -0.010543   
C55      C      0.269470000000     0.279500000000     0.348110000000    -0.0109761  
C56      C      0.225610000000     0.240290000000     0.348570000000    -0.0107612  
C57      C      0.235070000000     0.026520000000     0.142280000000    -0.0119211  
C58      C      0.278630000000     0.986880000000     0.141860000000    -0.0123865  
C59      C      0.222140000000     0.512490000000     0.112330000000    -0.0111384  
C60      C      0.263070000000     0.470430000000     0.114570000000    -0.0108837  
C61      C      0.231190000000     0.485250000000     0.362080000000    -0.0114788  
C62      C      0.282740000000     0.514810000000     0.362180000000    -0.0115392  
C63      C      0.243440000000     0.972540000000     0.392910000000    -0.0113637  
C64      C      0.272550000000     0.024110000000     0.394880000000    -0.0112065  
C65      C      0.283160000000     0.364650000000     0.231790000000    -0.0117207  
C66      C      0.224490000000     0.364850000000     0.232210000000    -0.0118687  
C67      C      0.283540000000     0.391330000000     0.255070000000    -0.0117802  
C68      C      0.224760000000     0.391960000000     0.255070000000    -0.0118871  
C69      C      0.226160000000     0.114510000000     0.258890000000    -0.0117428  
C70      C      0.284840000000     0.114640000000     0.258390000000    -0.0118316  
C71      C      0.225780000000     0.141500000000     0.235950000000    -0.0118243  
C72      C      0.284570000000     0.142200000000     0.236050000000    -0.0119138  
C73      C      0.027240000000     0.230730000000     0.113430000000    -0.0112556  
C74      C      0.498330000000     0.282430000000     0.111900000000    -0.0117609  
C75      C      0.036100000000     0.241830000000     0.145940000000    -0.0118063  
C76      C      0.484720000000     0.271570000000     0.142870000000    -0.0112618  
C77      C      0.466190000000     0.257530000000     0.362330000000    -0.0113623  
C78      C      0.017560000000     0.227550000000     0.363360000000    -0.0113843  
C79      C      0.476300000000     0.268620000000     0.394480000000    -0.0111453  
C80      C      0.005170000000     0.216830000000     0.394770000000    -0.015305   
C81      C      0.480970000000     0.472480000000     0.099660000000    -0.0112821  
C82      C      0.010330000000     0.523950000000     0.099490000000    -0.0154625  
C83      C      0.471060000000     0.983070000000     0.132050000000    -0.0124458  
C84      C      0.022770000000     0.012340000000     0.130670000000    -0.0104598  
C85      C      0.018650000000     0.026310000000     0.350670000000    -0.0131045  
C86      C      0.476100000000     0.485610000000     0.351880000000    -0.0106185  
C87      C      0.031840000000     0.013300000000     0.380990000000    -0.00925353 
C88      C      0.492200000000     0.469960000000     0.379290000000    -0.0106093  
C89      C      0.975030000000     0.387690000000     0.240690000000    -0.0103068  
C90      C      0.033870000000     0.389500000000     0.241750000000    -0.0128643  
C91      C      0.475510000000     0.362070000000     0.264820000000    -0.0110293  
C92      C      0.534040000000     0.361370000000     0.263790000000    -0.0121986  
C93      C      0.024420000000     0.138230000000     0.253220000000    -0.0125532  
C94      C      0.465530000000     0.140130000000     0.252960000000    -0.0126615  
C95      C      0.023470000000     0.111650000000     0.230170000000    -0.012348   
C96      C      0.464970000000     0.110850000000     0.232480000000    -0.0121925  
C97      C      0.995720000000     0.061880000000     0.737990000000     0.402059   
C98      C      0.002370000000     0.438220000000     0.743140000000     0.39669    
C99      C      0.999280000000     0.002420000000     0.802700000000     0.403425   
C100     C      0.998100000000     0.497920000000     0.679920000000     0.402935   
C101     C      0.997120000000     0.188690000000     0.750660000000     0.401945   
C102     C      0.003540000000     0.312230000000     0.758220000000     0.397302   
C103     C      0.005920000000     0.254060000000     0.692700000000     0.398487   
C104     C      0.995480000000     0.246550000000     0.814680000000     0.404783   
C105     C      0.255500000000     0.065040000000     0.753890000000     0.399754   
C106     C      0.254740000000     0.441250000000     0.751820000000     0.399821   
C107     C      0.255970000000     0.001950000000     0.813580000000     0.400774   
C108     C      0.254970000000     0.504070000000     0.690760000000     0.399073   
C109     C      0.254510000000     0.191420000000     0.739420000000     0.39979    
C110     C      0.253760000000     0.315190000000     0.736660000000     0.399754   
C111     C      0.256010000000     0.252130000000     0.677480000000     0.401118   
C112     C      0.251540000000     0.255050000000     0.799980000000     0.400714   
C113     C      0.438970000000     0.498490000000     0.984870000000     0.400338   
C114     C      0.062960000000     0.493980000000     0.996260000000     0.401564   
C115     C      0.006450000000     0.494560000000     0.928600000000     0.400253   
C116     C      0.996360000000     0.497650000000     0.551020000000     0.400178   
C117     C      0.441820000000     0.247920000000     0.011040000000     0.400255   
C118     C      0.065290000000     0.251530000000     0.994270000000     0.398456   
C119     C      0.995640000000     0.245660000000     0.942770000000     0.401296   
C120     C      0.010770000000     0.253970000000     0.564210000000     0.400963   
C121     C      0.191190000000     0.493690000000     0.997810000000     0.40118    
C122     C      0.315240000000     0.497060000000     0.007950000000     0.399606   
C123     C      0.257330000000     0.496780000000     0.942460000000     0.39923    
C124     C      0.248180000000     0.494090000000     0.564910000000     0.399314   
C125     C      0.194130000000     0.251610000000     0.489900000000     0.398191   
C126     C      0.318660000000     0.248630000000     0.486700000000     0.399728   
C127     C      0.255950000000     0.248860000000     0.926180000000     0.400683   
C128     C      0.257720000000     0.251210000000     0.548730000000     0.400797   
C129     C      0.368480000000     0.218660000000     0.986530000000    -0.0110801  
C130     C      0.369040000000     0.277090000000     0.988330000000    -0.0100679  
C131     C      0.392160000000     0.217780000000     0.513200000000    -0.0119547  
C132     C      0.391360000000     0.275870000000     0.515780000000    -0.0111464  
C133     C      0.114090000000     0.222860000000     0.982770000000    -0.00946798 
C134     C      0.113310000000     0.281030000000     0.980370000000    -0.0122979  
C135     C      0.144820000000     0.223690000000     0.500540000000    -0.011828   
C136     C      0.145290000000     0.282110000000     0.496500000000    -0.0124491  
C137     C      0.365010000000     0.027060000000     0.011050000000    -0.0133495  
C138     C      0.365770000000     0.468830000000     0.507760000000    -0.0113394  
C139     C      0.389300000000     0.028790000000     0.984920000000    -0.0102222  
C140     C      0.388390000000     0.470690000000     0.480610000000    -0.0113491  
C141     C      0.141960000000     0.521800000000     0.987030000000    -0.0101521  
C142     C      0.142500000000     0.463410000000     0.488950000000    -0.0122884  
C143     C      0.112290000000     0.022150000000     0.006410000000    -0.0122945  
C144     C      0.111410000000     0.963790000000     0.506670000000    -0.0120032  
C145     C      0.243610000000     0.277860000000     0.596870000000    -0.0113533  
C146     C      0.272860000000     0.226300000000     0.597580000000    -0.0113032  
C147     C      0.231600000000     0.266920000000     0.628360000000    -0.0112951  
C148     C      0.283260000000     0.237470000000     0.629620000000    -0.0115137  
C149     C      0.281680000000     0.266240000000     0.878570000000    -0.0112578  
C150     C      0.239940000000     0.224830000000     0.877070000000    -0.0105869  
C151     C      0.269470000000     0.279500000000     0.848110000000    -0.0109611  
C152     C      0.225610000000     0.240290000000     0.848570000000    -0.010715   
C153     C      0.235070000000     0.026520000000     0.642280000000    -0.0119142  
C154     C      0.278640000000     0.986880000000     0.641860000000    -0.0125127  
C155     C      0.222140000000     0.512490000000     0.612330000000    -0.0111294  
C156     C      0.263070000000     0.470430000000     0.614570000000    -0.0108463  
C157     C      0.231190000000     0.485250000000     0.862080000000    -0.0114952  
C158     C      0.282740000000     0.514810000000     0.862180000000    -0.0115008  
C159     C      0.243440000000     0.972540000000     0.892910000000    -0.0114     
C160     C      0.272550000000     0.024110000000     0.894880000000    -0.0112379  
C161     C      0.283160000000     0.364660000000     0.731790000000    -0.0118143  
C162     C      0.224490000000     0.364850000000     0.732210000000    -0.0117674  
C163     C      0.283540000000     0.391330000000     0.755070000000    -0.0117512  
C164     C      0.224760000000     0.391960000000     0.755070000000    -0.0119614  
C165     C      0.226160000000     0.114510000000     0.758880000000    -0.0117693  
C166     C      0.284840000000     0.114640000000     0.758380000000    -0.0117414  
C167     C      0.225780000000     0.141500000000     0.735950000000    -0.0118225  
C168     C      0.284570000000     0.142200000000     0.736060000000    -0.0119149  
C169     C      0.027240000000     0.230730000000     0.613430000000    -0.0112507  
C170     C      0.498330000000     0.282430000000     0.611900000000    -0.0118118  
C171     C      0.036100000000     0.241830000000     0.645940000000    -0.0118063  
C172     C      0.484730000000     0.271570000000     0.642870000000    -0.0111554  
C173     C      0.466190000000     0.257530000000     0.862330000000    -0.0113597  
C174     C      0.017560000000     0.227550000000     0.863360000000    -0.0113708  
C175     C      0.476300000000     0.268620000000     0.894480000000    -0.0112131  
C176     C      0.005170000000     0.216830000000     0.894760000000    -0.015322   
C177     C      0.480970000000     0.472470000000     0.599660000000    -0.011421   
C178     C      0.010330000000     0.523950000000     0.599490000000    -0.015443   
C179     C      0.471060000000     0.983070000000     0.632050000000    -0.0124346  
C180     C      0.022770000000     0.012340000000     0.630670000000    -0.0105019  
C181     C      0.018650000000     0.026310000000     0.850670000000    -0.013109   
C182     C      0.476100000000     0.485610000000     0.851880000000    -0.010626   
C183     C      0.031840000000     0.013300000000     0.880990000000    -0.00924077 
C184     C      0.492200000000     0.469960000000     0.879290000000    -0.0106057  
C185     C      0.975030000000     0.387690000000     0.740690000000    -0.0103258  
C186     C      0.033870000000     0.389500000000     0.741760000000    -0.0128504  
C187     C      0.475510000000     0.362070000000     0.764820000000    -0.0110904  
C188     C      0.534040000000     0.361370000000     0.763790000000    -0.012139   
C189     C      0.024420000000     0.138230000000     0.753220000000    -0.012543   
C190     C      0.465530000000     0.140130000000     0.752960000000    -0.0125307  
C191     C      0.023470000000     0.111650000000     0.730170000000    -0.0123605  
C192     C      0.464960000000     0.110850000000     0.732480000000    -0.0123464  
C193     C      0.995710000000     0.561890000000     0.237990000000     0.401982   
C194     C      0.002370000000     0.938220000000     0.243140000000     0.396778   
C195     C      0.999270000000     0.502420000000     0.302690000000     0.402565   
C196     C      0.998100000000     0.997920000000     0.179910000000     0.401866   
C197     C      0.997120000000     0.688690000000     0.250660000000     0.401952   
C198     C      0.003540000000     0.812230000000     0.258220000000     0.3973     
C199     C      0.005920000000     0.754060000000     0.192700000000     0.398487   
C200     C      0.995480000000     0.746550000000     0.314680000000     0.404794   
C201     C      0.255500000000     0.565030000000     0.253890000000     0.399787   
C202     C      0.254740000000     0.941250000000     0.251820000000     0.399984   
C203     C      0.255970000000     0.501950000000     0.313570000000     0.39976    
C204     C      0.254970000000     0.004060000000     0.190760000000     0.399118   
C205     C      0.254510000000     0.691420000000     0.239420000000     0.399792   
C206     C      0.253760000000     0.815190000000     0.236660000000     0.399756   
C207     C      0.256010000000     0.752130000000     0.177470000000     0.401001   
C208     C      0.251540000000     0.755040000000     0.299980000000     0.400719   
C209     C      0.438980000000     0.998490000000     0.484870000000     0.399315   
C210     C      0.062960000000     0.993980000000     0.496260000000     0.399423   
C211     C      0.006450000000     0.994560000000     0.428600000000     0.399185   
C212     C      0.996360000000     0.997650000000     0.051020000000     0.399478   
C213     C      0.441820000000     0.747920000000     0.511040000000     0.400582   
C214     C      0.065290000000     0.751530000000     0.494280000000     0.398582   
C215     C      0.995640000000     0.745660000000     0.442770000000     0.402017   
C216     C      0.010770000000     0.753970000000     0.064210000000     0.400799   
C217     C      0.191190000000     0.993690000000     0.497810000000     0.398849   
C218     C      0.315240000000     0.997060000000     0.507950000000     0.398695   
C219     C      0.257330000000     0.996790000000     0.442460000000     0.398579   
C220     C      0.248180000000     0.994090000000     0.064910000000     0.398063   
C221     C      0.194130000000     0.751620000000     0.989900000000     0.398333   
C222     C      0.318660000000     0.748630000000     0.986710000000     0.400028   
C223     C      0.255950000000     0.748860000000     0.426180000000     0.400699   
C224     C      0.257710000000     0.751210000000     0.048730000000     0.401027   
C225     C      0.368480000000     0.718660000000     0.486530000000    -0.0124304  
C226     C      0.369040000000     0.777090000000     0.488340000000    -0.0115577  
C227     C      0.392160000000     0.717780000000     0.013200000000    -0.013316   
C228     C      0.391360000000     0.775870000000     0.015780000000    -0.0125764  
C229     C      0.114090000000     0.722860000000     0.482770000000    -0.0114904  
C230     C      0.113310000000     0.781030000000     0.480370000000    -0.0120354  
C231     C      0.144820000000     0.723690000000     0.000540000000    -0.0158672  
C232     C      0.145290000000     0.782110000000     0.996500000000    -0.0107459  
C233     C      0.365010000000     0.527060000000     0.511050000000    -0.0124024  
C234     C      0.365770000000     0.968830000000     0.007760000000    -0.0127659  
C235     C      0.389300000000     0.528790000000     0.484920000000    -0.0121895  
C236     C      0.388390000000     0.970690000000     0.980610000000    -0.0100503  
C237     C      0.141960000000     0.021800000000     0.487030000000    -0.0111513  
C238     C      0.142500000000     0.963410000000     0.988950000000    -0.0102848  
C239     C      0.112290000000     0.522150000000     0.506410000000    -0.011386   
C240     C      0.111410000000     0.463780000000     0.006670000000    -0.0152681  
C241     C      0.243610000000     0.777860000000     0.096870000000    -0.0112937  
C242     C      0.272860000000     0.726300000000     0.097580000000    -0.0112645  
C243     C      0.231600000000     0.766920000000     0.128360000000    -0.0113257  
C244     C      0.283260000000     0.737470000000     0.129620000000    -0.0115202  
C245     C      0.281680000000     0.766240000000     0.378570000000    -0.0112536  
C246     C      0.239940000000     0.724830000000     0.377080000000    -0.0105409  
C247     C      0.269470000000     0.779500000000     0.348110000000    -0.0109502  
C248     C      0.225610000000     0.740290000000     0.348570000000    -0.010759   
C249     C      0.235070000000     0.526520000000     0.142280000000    -0.0115384  
C250     C      0.278630000000     0.486880000000     0.141860000000    -0.0107508  
C251     C      0.222140000000     0.012490000000     0.112330000000    -0.00953976 
C252     C      0.263070000000     0.970430000000     0.114570000000    -0.0105069  
C253     C      0.231190000000     0.985250000000     0.362080000000    -0.0130143  
C254     C      0.282740000000     0.014810000000     0.362180000000    -0.0106177  
C255     C      0.243440000000     0.472540000000     0.392910000000    -0.0117065  
C256     C      0.272550000000     0.524110000000     0.394880000000    -0.0115035  
C257     C      0.283160000000     0.864650000000     0.231790000000    -0.0117227  
C258     C      0.224490000000     0.864850000000     0.232210000000    -0.0118722  
C259     C      0.283540000000     0.891330000000     0.255070000000    -0.0117751  
C260     C      0.224760000000     0.891960000000     0.255070000000    -0.0118784  
C261     C      0.226160000000     0.614500000000     0.258890000000    -0.0117455  
C262     C      0.284840000000     0.614640000000     0.258390000000    -0.0118412  
C263     C      0.225780000000     0.641500000000     0.235950000000    -0.0118259  
C264     C      0.284570000000     0.642200000000     0.236050000000    -0.0119103  
C265     C      0.027240000000     0.730730000000     0.113430000000    -0.0112416  
C266     C      0.498330000000     0.782430000000     0.111900000000    -0.011758   
C267     C      0.036100000000     0.741830000000     0.145940000000    -0.0118377  
C268     C      0.484720000000     0.771570000000     0.142870000000    -0.0112611  
C269     C      0.466190000000     0.757530000000     0.362330000000    -0.0113579  
C270     C      0.017560000000     0.727550000000     0.363360000000    -0.0113844  
C271     C      0.476300000000     0.768620000000     0.394480000000    -0.0111518  
C272     C      0.005170000000     0.716830000000     0.394770000000    -0.0152813  
C273     C      0.480970000000     0.972470000000     0.099660000000    -0.0112368  
C274     C      0.010330000000     0.023950000000     0.099490000000    -0.0152438  
C275     C      0.471060000000     0.483070000000     0.132050000000    -0.0114714  
C276     C      0.022770000000     0.512340000000     0.130670000000    -0.0118617  
C277     C      0.018650000000     0.526310000000     0.350670000000    -0.0127512  
C278     C      0.476100000000     0.985610000000     0.351880000000    -0.0122233  
C279     C      0.031840000000     0.513300000000     0.380990000000    -0.0108439  
C280     C      0.492200000000     0.969960000000     0.379290000000    -0.01024    
C281     C      0.975030000000     0.887690000000     0.240690000000    -0.010318   
C282     C      0.033870000000     0.889500000000     0.241750000000    -0.0128705  
C283     C      0.475510000000     0.862070000000     0.264820000000    -0.0110153  
C284     C      0.534040000000     0.861370000000     0.263790000000    -0.0121976  
C285     C      0.024420000000     0.638230000000     0.253220000000    -0.0125755  
C286     C      0.465530000000     0.640130000000     0.252960000000    -0.0126674  
C287     C      0.023470000000     0.611650000000     0.230170000000    -0.0123105  
C288     C      0.464970000000     0.610850000000     0.232480000000    -0.0121693  
C289     C      0.995720000000     0.561890000000     0.737990000000     0.401867   
C290     C      0.002370000000     0.938220000000     0.743140000000     0.396818   
C291     C      0.999280000000     0.502420000000     0.802700000000     0.402458   
C292     C      0.998100000000     0.997920000000     0.679920000000     0.401937   
C293     C      0.997120000000     0.688690000000     0.750660000000     0.401939   
C294     C      0.003540000000     0.812230000000     0.758220000000     0.397314   
C295     C      0.005920000000     0.754060000000     0.692700000000     0.39849    
C296     C      0.995480000000     0.746550000000     0.814680000000     0.404778   
C297     C      0.255500000000     0.565040000000     0.753890000000     0.399597   
C298     C      0.254740000000     0.941250000000     0.751820000000     0.399977   
C299     C      0.255970000000     0.501950000000     0.813580000000     0.399637   
C300     C      0.254970000000     0.004060000000     0.690760000000     0.399186   
C301     C      0.254510000000     0.691420000000     0.739420000000     0.399796   
C302     C      0.253760000000     0.815190000000     0.736660000000     0.399681   
C303     C      0.256010000000     0.752130000000     0.677480000000     0.401127   
C304     C      0.251540000000     0.755050000000     0.799980000000     0.400719   
C305     C      0.438970000000     0.998490000000     0.984870000000     0.399377   
C306     C      0.062960000000     0.993980000000     0.996260000000     0.400605   
C307     C      0.006450000000     0.994560000000     0.928600000000     0.39935    
C308     C      0.996360000000     0.997650000000     0.551020000000     0.399212   
C309     C      0.441820000000     0.747920000000     0.011040000000     0.400242   
C310     C      0.065290000000     0.751530000000     0.994270000000     0.398439   
C311     C      0.995640000000     0.745660000000     0.942770000000     0.401284   
C312     C      0.010770000000     0.753970000000     0.564210000000     0.400969   
C313     C      0.191190000000     0.993690000000     0.997810000000     0.400212   
C314     C      0.315240000000     0.997060000000     0.007950000000     0.398665   
C315     C      0.257330000000     0.996780000000     0.942460000000     0.398276   
C316     C      0.248180000000     0.994090000000     0.564910000000     0.398405   
C317     C      0.194130000000     0.751610000000     0.489900000000     0.398194   
C318     C      0.318660000000     0.748630000000     0.486700000000     0.399734   
C319     C      0.255950000000     0.748860000000     0.926180000000     0.400686   
C320     C      0.257720000000     0.751210000000     0.548730000000     0.401037   
C321     C      0.368480000000     0.718660000000     0.986530000000    -0.0110842  
C322     C      0.369040000000     0.777090000000     0.988330000000    -0.0100871  
C323     C      0.392160000000     0.717780000000     0.513200000000    -0.0119523  
C324     C      0.391360000000     0.775870000000     0.515780000000    -0.0111443  
C325     C      0.114090000000     0.722860000000     0.982770000000    -0.00948275 
C326     C      0.113310000000     0.781040000000     0.980370000000    -0.0124114  
C327     C      0.144820000000     0.723690000000     0.500540000000    -0.0118695  
C328     C      0.145290000000     0.782110000000     0.496500000000    -0.012448   
C329     C      0.365010000000     0.527060000000     0.011050000000    -0.0137934  
C330     C      0.365770000000     0.968830000000     0.507760000000    -0.0113851  
C331     C      0.389300000000     0.528790000000     0.984920000000    -0.0107047  
C332     C      0.388390000000     0.970690000000     0.480610000000    -0.0114799  
C333     C      0.141960000000     0.021800000000     0.987030000000    -0.00968286 
C334     C      0.142500000000     0.963410000000     0.488950000000    -0.0123628  
C335     C      0.112290000000     0.522150000000     0.006410000000    -0.0127615  
C336     C      0.111410000000     0.463790000000     0.506670000000    -0.0119295  
C337     C      0.243610000000     0.777860000000     0.596870000000    -0.0113475  
C338     C      0.272860000000     0.726290000000     0.597580000000    -0.0114267  
C339     C      0.231600000000     0.766920000000     0.628360000000    -0.0112896  
C340     C      0.283260000000     0.737480000000     0.629620000000    -0.0114189  
C341     C      0.281680000000     0.766240000000     0.878570000000    -0.0112497  
C342     C      0.239940000000     0.724830000000     0.877070000000    -0.0105843  
C343     C      0.269470000000     0.779500000000     0.848110000000    -0.010981   
C344     C      0.225610000000     0.740290000000     0.848570000000    -0.0107133  
C345     C      0.235070000000     0.526520000000     0.642280000000    -0.0115361  
C346     C      0.278640000000     0.486880000000     0.641860000000    -0.0108502  
C347     C      0.222140000000     0.012490000000     0.612330000000    -0.00951622 
C348     C      0.263070000000     0.970430000000     0.614570000000    -0.010464   
C349     C      0.231190000000     0.985250000000     0.862080000000    -0.013016   
C350     C      0.282740000000     0.014810000000     0.862180000000    -0.010553   
C351     C      0.243440000000     0.472540000000     0.892910000000    -0.011686   
C352     C      0.272550000000     0.524110000000     0.894880000000    -0.0115619  
C353     C      0.283160000000     0.864650000000     0.731790000000    -0.0117922  
C354     C      0.224490000000     0.864850000000     0.732210000000    -0.0117641  
C355     C      0.283540000000     0.891330000000     0.755070000000    -0.0117583  
C356     C      0.224760000000     0.891960000000     0.755070000000    -0.0119554  
C357     C      0.226160000000     0.614510000000     0.758880000000    -0.011766   
C358     C      0.284840000000     0.614640000000     0.758380000000    -0.0117332  
C359     C      0.225780000000     0.641500000000     0.735950000000    -0.0118203  
C360     C      0.284570000000     0.642200000000     0.736060000000    -0.0119148  
C361     C      0.027240000000     0.730730000000     0.613430000000    -0.0112389  
C362     C      0.498330000000     0.782430000000     0.611900000000    -0.0118193  
C363     C      0.036100000000     0.741830000000     0.645940000000    -0.0118382  
C364     C      0.484730000000     0.771570000000     0.642870000000    -0.0111189  
C365     C      0.466190000000     0.757530000000     0.862330000000    -0.0113796  
C366     C      0.017560000000     0.727550000000     0.863360000000    -0.0113715  
C367     C      0.476300000000     0.768610000000     0.894480000000    -0.0111062  
C368     C      0.005170000000     0.716830000000     0.894760000000    -0.0153074  
C369     C      0.480970000000     0.972470000000     0.599660000000    -0.0112577  
C370     C      0.010330000000     0.023950000000     0.599490000000    -0.0152173  
C371     C      0.471060000000     0.483070000000     0.632050000000    -0.0114015  
C372     C      0.022770000000     0.512340000000     0.630670000000    -0.0119139  
C373     C      0.018650000000     0.526310000000     0.850670000000    -0.0127531  
C374     C      0.476100000000     0.985610000000     0.851880000000    -0.0122403  
C375     C      0.031840000000     0.513300000000     0.880990000000    -0.0108397  
C376     C      0.492200000000     0.969960000000     0.879290000000    -0.0102344  
C377     C      0.975030000000     0.887690000000     0.740690000000    -0.0103447  
C378     C      0.033870000000     0.889500000000     0.741760000000    -0.0128484  
C379     C      0.475510000000     0.862060000000     0.764820000000    -0.0110719  
C380     C      0.534040000000     0.861360000000     0.763790000000    -0.0121202  
C381     C      0.024420000000     0.638230000000     0.753220000000    -0.0125493  
C382     C      0.465530000000     0.640130000000     0.752960000000    -0.0125361  
C383     C      0.023470000000     0.611650000000     0.730170000000    -0.0123275  
C384     C      0.464960000000     0.610850000000     0.732480000000    -0.0123218  
C385     C      0.495720000000     0.061880000000     0.237990000000     0.39958    
C386     C      0.502370000000     0.438220000000     0.243140000000     0.399203   
C387     C      0.499280000000     0.002420000000     0.302690000000     0.400983   
C388     C      0.498100000000     0.497920000000     0.179910000000     0.400306   
C389     C      0.497120000000     0.188690000000     0.250660000000     0.399449   
C390     C      0.503540000000     0.312230000000     0.258220000000     0.399754   
C391     C      0.505920000000     0.254060000000     0.192700000000     0.40093    
C392     C      0.495480000000     0.246550000000     0.314680000000     0.402301   
C393     C      0.755500000000     0.065040000000     0.253890000000     0.39973    
C394     C      0.754740000000     0.441250000000     0.251820000000     0.399828   
C395     C      0.755970000000     0.001950000000     0.313570000000     0.400845   
C396     C      0.754970000000     0.504060000000     0.190760000000     0.398982   
C397     C      0.754510000000     0.191420000000     0.239420000000     0.399786   
C398     C      0.753760000000     0.315190000000     0.236660000000     0.399749   
C399     C      0.756010000000     0.252130000000     0.177470000000     0.400992   
C400     C      0.751540000000     0.255040000000     0.299980000000     0.400708   
C401     C      0.938980000000     0.498490000000     0.484870000000     0.400219   
C402     C      0.562960000000     0.493980000000     0.496260000000     0.400325   
C403     C      0.506450000000     0.494560000000     0.428600000000     0.40004    
C404     C      0.496360000000     0.497650000000     0.051020000000     0.400454   
C405     C      0.941820000000     0.247920000000     0.511040000000     0.400185   
C406     C      0.565280000000     0.251530000000     0.494280000000     0.398927   
C407     C      0.495640000000     0.245660000000     0.442770000000     0.402141   
C408     C      0.510770000000     0.253970000000     0.064210000000     0.40109    
C409     C      0.691190000000     0.493690000000     0.497810000000     0.399798   
C410     C      0.815240000000     0.497060000000     0.507950000000     0.399649   
C411     C      0.757330000000     0.496790000000     0.442460000000     0.39952    
C412     C      0.748180000000     0.494090000000     0.064910000000     0.39895    
C413     C      0.694130000000     0.251610000000     0.989900000000     0.39833    
C414     C      0.818660000000     0.248630000000     0.986710000000     0.40002    
C415     C      0.755950000000     0.248860000000     0.426180000000     0.400727   
C416     C      0.757720000000     0.251210000000     0.048730000000     0.401016   
C417     C      0.868480000000     0.218660000000     0.486530000000    -0.0124254  
C418     C      0.869040000000     0.277090000000     0.488340000000    -0.0115306  
C419     C      0.892160000000     0.217780000000     0.013200000000    -0.0133492  
C420     C      0.891360000000     0.275870000000     0.015780000000    -0.0126416  
C421     C      0.614090000000     0.222860000000     0.482770000000    -0.0115139  
C422     C      0.613310000000     0.281030000000     0.480370000000    -0.0120523  
C423     C      0.644820000000     0.223690000000     0.000540000000    -0.0158794  
C424     C      0.645290000000     0.282110000000     0.996500000000    -0.0107946  
C425     C      0.865010000000     0.027060000000     0.511050000000    -0.0119575  
C426     C      0.865780000000     0.468830000000     0.007760000000    -0.0126961  
C427     C      0.889300000000     0.028790000000     0.484920000000    -0.0116594  
C428     C      0.888390000000     0.470690000000     0.980610000000    -0.00999961 
C429     C      0.641960000000     0.521800000000     0.487030000000    -0.0116251  
C430     C      0.642500000000     0.463410000000     0.988950000000    -0.0101942  
C431     C      0.612290000000     0.022150000000     0.506410000000    -0.0109079  
C432     C      0.611410000000     0.963790000000     0.006670000000    -0.0152165  
C433     C      0.743610000000     0.277860000000     0.096870000000    -0.011333   
C434     C      0.772860000000     0.226300000000     0.097580000000    -0.0112776  
C435     C      0.731600000000     0.266920000000     0.128360000000    -0.0113218  
C436     C      0.783260000000     0.237470000000     0.129620000000    -0.0115276  
C437     C      0.781680000000     0.266240000000     0.378570000000    -0.0112455  
C438     C      0.739950000000     0.224830000000     0.377080000000    -0.0104852  
C439     C      0.769470000000     0.279500000000     0.348110000000    -0.0109983  
C440     C      0.725610000000     0.240290000000     0.348570000000    -0.0107941  
C441     C      0.735070000000     0.026520000000     0.142280000000    -0.0119499  
C442     C      0.778640000000     0.986880000000     0.141860000000    -0.0125078  
C443     C      0.722140000000     0.512490000000     0.112330000000    -0.0110926  
C444     C      0.763070000000     0.470430000000     0.114570000000    -0.0108842  
C445     C      0.731190000000     0.485250000000     0.362080000000    -0.011485   
C446     C      0.782740000000     0.514810000000     0.362180000000    -0.0115473  
C447     C      0.743440000000     0.972540000000     0.392910000000    -0.011366   
C448     C      0.772550000000     0.024110000000     0.394880000000    -0.0112066  
C449     C      0.783160000000     0.364650000000     0.231790000000    -0.0117919  
C450     C      0.724490000000     0.364850000000     0.232210000000    -0.0118076  
C451     C      0.783540000000     0.391330000000     0.255070000000    -0.0117646  
C452     C      0.724760000000     0.391960000000     0.255070000000    -0.0119154  
C453     C      0.726160000000     0.114510000000     0.258890000000    -0.0118     
C454     C      0.784840000000     0.114640000000     0.258390000000    -0.0118423  
C455     C      0.725790000000     0.141500000000     0.235950000000    -0.0117082  
C456     C      0.784570000000     0.142200000000     0.236050000000    -0.0119158  
C457     C      0.527230000000     0.230730000000     0.113430000000    -0.0112624  
C458     C      0.998330000000     0.282430000000     0.111900000000    -0.00797724 
C459     C      0.536100000000     0.241830000000     0.145940000000    -0.011514   
C460     C      0.984730000000     0.271570000000     0.142870000000    -0.0106712  
C461     C      0.966190000000     0.257530000000     0.362330000000    -0.0110391  
C462     C      0.517560000000     0.227550000000     0.363360000000    -0.010946   
C463     C      0.976300000000     0.268620000000     0.394480000000    -0.0112051  
C464     C      0.505170000000     0.216830000000     0.394770000000    -0.0114902  
C465     C      0.980970000000     0.472480000000     0.099660000000    -0.0112946  
C466     C      0.510330000000     0.523950000000     0.099490000000    -0.0116586  
C467     C      0.971060000000     0.983070000000     0.132050000000    -0.0121892  
C468     C      0.522770000000     0.012340000000     0.130670000000    -0.0100453  
C469     C      0.518650000000     0.026310000000     0.350670000000    -0.011665   
C470     C      0.976100000000     0.485610000000     0.351880000000    -0.0114415  
C471     C      0.531830000000     0.013300000000     0.380990000000    -0.00942588 
C472     C      0.992200000000     0.469960000000     0.379290000000    -0.0064947  
C473     C      0.475030000000     0.387690000000     0.240690000000    -0.0114897  
C474     C      0.533870000000     0.389500000000     0.241750000000    -0.0126278  
C475     C      0.975510000000     0.362070000000     0.264820000000    -0.00995119 
C476     C      0.034040000000     0.361370000000     0.263790000000    -0.0123249  
C477     C      0.524420000000     0.138230000000     0.253220000000    -0.0114251  
C478     C      0.965530000000     0.140130000000     0.252960000000    -0.012405   
C479     C      0.523470000000     0.111650000000     0.230170000000    -0.0111732  
C480     C      0.964970000000     0.110850000000     0.232480000000    -0.0120146  
C481     C      0.495720000000     0.061880000000     0.737990000000     0.39957    
C482     C      0.502380000000     0.438220000000     0.743140000000     0.399131   
C483     C      0.499270000000     0.002420000000     0.802700000000     0.400661   
C484     C      0.498100000000     0.497920000000     0.679920000000     0.400406   
C485     C      0.497120000000     0.188690000000     0.750660000000     0.399456   
C486     C      0.503540000000     0.312230000000     0.758220000000     0.399753   
C487     C      0.505920000000     0.254060000000     0.692700000000     0.401177   
C488     C      0.495480000000     0.246550000000     0.814680000000     0.402304   
C489     C      0.755500000000     0.065040000000     0.753890000000     0.399748   
C490     C      0.754740000000     0.441250000000     0.751820000000     0.399814   
C491     C      0.755970000000     0.001950000000     0.813580000000     0.400773   
C492     C      0.754970000000     0.504070000000     0.690760000000     0.399067   
C493     C      0.754510000000     0.191420000000     0.739420000000     0.399797   
C494     C      0.753760000000     0.315190000000     0.736660000000     0.399763   
C495     C      0.756010000000     0.252130000000     0.677480000000     0.401126   
C496     C      0.751540000000     0.255050000000     0.799980000000     0.400491   
C497     C      0.938980000000     0.498490000000     0.984870000000     0.40049    
C498     C      0.562960000000     0.493980000000     0.996260000000     0.401512   
C499     C      0.506450000000     0.494560000000     0.928600000000     0.400209   
C500     C      0.496360000000     0.497650000000     0.551020000000     0.400196   
C501     C      0.941820000000     0.247920000000     0.011040000000     0.399783   
C502     C      0.565290000000     0.251530000000     0.994270000000     0.39871    
C503     C      0.495640000000     0.245660000000     0.942770000000     0.401642   
C504     C      0.510780000000     0.253970000000     0.564210000000     0.401233   
C505     C      0.691190000000     0.493690000000     0.997810000000     0.401166   
C506     C      0.815250000000     0.497060000000     0.007950000000     0.399511   
C507     C      0.757330000000     0.496780000000     0.942460000000     0.399229   
C508     C      0.748180000000     0.494090000000     0.564910000000     0.399311   
C509     C      0.694130000000     0.251610000000     0.489900000000     0.398187   
C510     C      0.818660000000     0.248630000000     0.486700000000     0.399728   
C511     C      0.755950000000     0.248860000000     0.926180000000     0.40068    
C512     C      0.757710000000     0.251210000000     0.548730000000     0.400796   
C513     C      0.868480000000     0.218660000000     0.986530000000    -0.0110887  
C514     C      0.869040000000     0.277090000000     0.988330000000    -0.0100622  
C515     C      0.892160000000     0.217780000000     0.513200000000    -0.0119883  
C516     C      0.891360000000     0.275870000000     0.515780000000    -0.0111973  
C517     C      0.614090000000     0.222860000000     0.982770000000    -0.00947645 
C518     C      0.613310000000     0.281030000000     0.980370000000    -0.0122965  
C519     C      0.644820000000     0.223690000000     0.500540000000    -0.011831   
C520     C      0.645290000000     0.282110000000     0.496500000000    -0.012448   
C521     C      0.865010000000     0.027060000000     0.011050000000    -0.013311   
C522     C      0.865770000000     0.468830000000     0.507760000000    -0.0113468  
C523     C      0.889300000000     0.028790000000     0.984920000000    -0.0102823  
C524     C      0.888390000000     0.470690000000     0.480610000000    -0.0113455  
C525     C      0.641960000000     0.521800000000     0.987030000000    -0.0101744  
C526     C      0.642500000000     0.463410000000     0.488950000000    -0.0122806  
C527     C      0.612290000000     0.022150000000     0.006410000000    -0.0122628  
C528     C      0.611410000000     0.963790000000     0.506670000000    -0.0120334  
C529     C      0.743610000000     0.277860000000     0.596870000000    -0.0113661  
C530     C      0.772860000000     0.226300000000     0.597580000000    -0.0112992  
C531     C      0.731600000000     0.266920000000     0.628360000000    -0.0112974  
C532     C      0.783260000000     0.237470000000     0.629620000000    -0.0115225  
C533     C      0.781680000000     0.266240000000     0.878570000000    -0.0112616  
C534     C      0.739940000000     0.224830000000     0.877070000000    -0.0105873  
C535     C      0.769470000000     0.279500000000     0.848110000000    -0.010973   
C536     C      0.725610000000     0.240290000000     0.848570000000    -0.0107315  
C537     C      0.735070000000     0.026520000000     0.642280000000    -0.0119198  
C538     C      0.778640000000     0.986880000000     0.641860000000    -0.0125297  
C539     C      0.722140000000     0.512490000000     0.612330000000    -0.0111371  
C540     C      0.763070000000     0.470430000000     0.614570000000    -0.0108507  
C541     C      0.731190000000     0.485250000000     0.862080000000    -0.0115021  
C542     C      0.782740000000     0.514810000000     0.862180000000    -0.011548   
C543     C      0.743440000000     0.972540000000     0.892910000000    -0.0114019  
C544     C      0.772550000000     0.024110000000     0.894880000000    -0.0112257  
C545     C      0.783160000000     0.364660000000     0.731790000000    -0.0118191  
C546     C      0.724490000000     0.364850000000     0.732210000000    -0.0117717  
C547     C      0.783540000000     0.391330000000     0.755070000000    -0.0117566  
C548     C      0.724760000000     0.391960000000     0.755070000000    -0.0119672  
C549     C      0.726160000000     0.114510000000     0.758880000000    -0.011709   
C550     C      0.784840000000     0.114640000000     0.758380000000    -0.0118131  
C551     C      0.725780000000     0.141500000000     0.735950000000    -0.0118483  
C552     C      0.784570000000     0.142200000000     0.736060000000    -0.0118983  
C553     C      0.527240000000     0.230730000000     0.613430000000    -0.0112905  
C554     C      0.998330000000     0.282430000000     0.611900000000    -0.00797935 
C555     C      0.536100000000     0.241830000000     0.645940000000    -0.0114878  
C556     C      0.984720000000     0.271570000000     0.642870000000    -0.0107955  
C557     C      0.966190000000     0.257530000000     0.862330000000    -0.0110465  
C558     C      0.517560000000     0.227550000000     0.863360000000    -0.0109339  
C559     C      0.976300000000     0.268620000000     0.894480000000    -0.0112513  
C560     C      0.505170000000     0.216830000000     0.894760000000    -0.0115428  
C561     C      0.980970000000     0.472470000000     0.599660000000    -0.011447   
C562     C      0.510330000000     0.523950000000     0.599490000000    -0.0116797  
C563     C      0.971060000000     0.983070000000     0.632050000000    -0.0121425  
C564     C      0.522770000000     0.012340000000     0.630670000000    -0.0100123  
C565     C      0.518650000000     0.026310000000     0.850670000000    -0.0116279  
C566     C      0.976100000000     0.485610000000     0.851880000000    -0.0114301  
C567     C      0.531840000000     0.013300000000     0.880990000000    -0.00952493 
C568     C      0.992200000000     0.469960000000     0.879290000000    -0.00650052 
C569     C      0.475030000000     0.387690000000     0.740690000000    -0.0114687  
C570     C      0.533870000000     0.389500000000     0.741760000000    -0.0126458  
C571     C      0.975510000000     0.362070000000     0.764820000000    -0.0099484  
C572     C      0.034040000000     0.361370000000     0.763790000000    -0.0123324  
C573     C      0.524420000000     0.138230000000     0.753220000000    -0.0114042  
C574     C      0.965530000000     0.140130000000     0.752960000000    -0.0123715  
C575     C      0.523470000000     0.111650000000     0.730170000000    -0.0112287  
C576     C      0.964970000000     0.110850000000     0.732480000000    -0.0120221  
C577     C      0.495720000000     0.561890000000     0.237990000000     0.399505   
C578     C      0.502370000000     0.938220000000     0.243140000000     0.399231   
C579     C      0.499280000000     0.502420000000     0.302690000000     0.400025   
C580     C      0.498100000000     0.997920000000     0.179910000000     0.399327   
C581     C      0.497120000000     0.688690000000     0.250660000000     0.399449   
C582     C      0.503540000000     0.812230000000     0.258220000000     0.399756   
C583     C      0.505920000000     0.754060000000     0.192700000000     0.40093    
C584     C      0.495480000000     0.746550000000     0.314680000000     0.402303   
C585     C      0.755500000000     0.565030000000     0.253890000000     0.39976    
C586     C      0.754740000000     0.941250000000     0.251820000000     0.399959   
C587     C      0.755970000000     0.501950000000     0.313570000000     0.399735   
C588     C      0.754970000000     0.004060000000     0.190760000000     0.39909    
C589     C      0.754510000000     0.691420000000     0.239420000000     0.399788   
C590     C      0.753760000000     0.815190000000     0.236660000000     0.399749   
C591     C      0.756010000000     0.752130000000     0.177470000000     0.400993   
C592     C      0.751540000000     0.755040000000     0.299980000000     0.400711   
C593     C      0.938980000000     0.998490000000     0.484870000000     0.399253   
C594     C      0.562960000000     0.993980000000     0.496260000000     0.399365   
C595     C      0.506450000000     0.994560000000     0.428600000000     0.39913    
C596     C      0.496360000000     0.997650000000     0.051020000000     0.399507   
C597     C      0.941820000000     0.747920000000     0.511040000000     0.400192   
C598     C      0.565280000000     0.751530000000     0.494280000000     0.398933   
C599     C      0.495640000000     0.745660000000     0.442770000000     0.402379   
C600     C      0.510770000000     0.753970000000     0.064210000000     0.401077   
C601     C      0.691190000000     0.993690000000     0.497810000000     0.398839   
C602     C      0.815240000000     0.997060000000     0.507950000000     0.398685   
C603     C      0.757330000000     0.996790000000     0.442460000000     0.398568   
C604     C      0.748180000000     0.994090000000     0.064910000000     0.398048   
C605     C      0.694130000000     0.751620000000     0.989900000000     0.398331   
C606     C      0.818660000000     0.748630000000     0.986710000000     0.400021   
C607     C      0.755950000000     0.748860000000     0.426180000000     0.400732   
C608     C      0.757720000000     0.751210000000     0.048730000000     0.401019   
C609     C      0.868480000000     0.718660000000     0.486530000000    -0.0124231  
C610     C      0.869040000000     0.777090000000     0.488340000000    -0.0115284  
C611     C      0.892160000000     0.717780000000     0.013200000000    -0.0133411  
C612     C      0.891360000000     0.775870000000     0.015780000000    -0.0125901  
C613     C      0.614090000000     0.722860000000     0.482770000000    -0.0114961  
C614     C      0.613310000000     0.781030000000     0.480370000000    -0.0120489  
C615     C      0.644820000000     0.723690000000     0.000540000000    -0.0158437  
C616     C      0.645290000000     0.782110000000     0.996500000000    -0.01076    
C617     C      0.865010000000     0.527060000000     0.511050000000    -0.0124064  
C618     C      0.865780000000     0.968830000000     0.007760000000    -0.0127538  
C619     C      0.889300000000     0.528790000000     0.484920000000    -0.012199   
C620     C      0.888390000000     0.970690000000     0.980610000000    -0.0100744  
C621     C      0.641960000000     0.021800000000     0.487030000000    -0.0111528  
C622     C      0.642500000000     0.963410000000     0.988950000000    -0.0102925  
C623     C      0.612290000000     0.522150000000     0.506410000000    -0.0113799  
C624     C      0.611410000000     0.463780000000     0.006670000000    -0.015275   
C625     C      0.743610000000     0.777860000000     0.096870000000    -0.0112915  
C626     C      0.772860000000     0.726300000000     0.097580000000    -0.0112738  
C627     C      0.731600000000     0.766920000000     0.128360000000    -0.0113324  
C628     C      0.783260000000     0.737470000000     0.129620000000    -0.0115261  
C629     C      0.781680000000     0.766240000000     0.378570000000    -0.0112511  
C630     C      0.739950000000     0.724830000000     0.377080000000    -0.0104831  
C631     C      0.769470000000     0.779500000000     0.348110000000    -0.0109722  
C632     C      0.725610000000     0.740290000000     0.348570000000    -0.0107919  
C633     C      0.735070000000     0.526520000000     0.142280000000    -0.011564   
C634     C      0.778640000000     0.486880000000     0.141860000000    -0.01086    
C635     C      0.722140000000     0.012490000000     0.112330000000    -0.0094814  
C636     C      0.763070000000     0.970430000000     0.114570000000    -0.0105049  
C637     C      0.731190000000     0.985250000000     0.362080000000    -0.0130322  
C638     C      0.782740000000     0.014810000000     0.362180000000    -0.0106201  
C639     C      0.743440000000     0.472540000000     0.392910000000    -0.011711   
C640     C      0.772550000000     0.524110000000     0.394880000000    -0.0115061  
C641     C      0.783160000000     0.864650000000     0.231790000000    -0.011794   
C642     C      0.724490000000     0.864850000000     0.232210000000    -0.0118111  
C643     C      0.783540000000     0.891330000000     0.255070000000    -0.0117595  
C644     C      0.724760000000     0.891960000000     0.255070000000    -0.0119067  
C645     C      0.726160000000     0.614500000000     0.258890000000    -0.0118026  
C646     C      0.784840000000     0.614640000000     0.258390000000    -0.0118519  
C647     C      0.725790000000     0.641500000000     0.235950000000    -0.0117098  
C648     C      0.784570000000     0.642200000000     0.236050000000    -0.0119123  
C649     C      0.527230000000     0.730730000000     0.113430000000    -0.0112483  
C650     C      0.998330000000     0.782430000000     0.111900000000    -0.00798593 
C651     C      0.536100000000     0.741830000000     0.145940000000    -0.0115462  
C652     C      0.984730000000     0.771570000000     0.142870000000    -0.0106716  
C653     C      0.966190000000     0.757530000000     0.362330000000    -0.0110355  
C654     C      0.517560000000     0.727550000000     0.363360000000    -0.0109476  
C655     C      0.976300000000     0.768620000000     0.394480000000    -0.0112114  
C656     C      0.505170000000     0.716830000000     0.394770000000    -0.0114768  
C657     C      0.980970000000     0.972470000000     0.099660000000    -0.0112484  
C658     C      0.510330000000     0.023950000000     0.099490000000    -0.0114386  
C659     C      0.971060000000     0.483070000000     0.132050000000    -0.0112088  
C660     C      0.522770000000     0.512340000000     0.130670000000    -0.0114583  
C661     C      0.518650000000     0.526310000000     0.350670000000    -0.0113086  
C662     C      0.976100000000     0.985610000000     0.351880000000    -0.0130487  
C663     C      0.531830000000     0.513300000000     0.380990000000    -0.0110358  
C664     C      0.992200000000     0.969960000000     0.379290000000    -0.00614621 
C665     C      0.475030000000     0.887690000000     0.240690000000    -0.0114956  
C666     C      0.533870000000     0.889500000000     0.241750000000    -0.0126347  
C667     C      0.975510000000     0.862070000000     0.264820000000    -0.00994156 
C668     C      0.034040000000     0.861370000000     0.263790000000    -0.012323   
C669     C      0.524420000000     0.638230000000     0.253220000000    -0.0114502  
C670     C      0.965530000000     0.640130000000     0.252960000000    -0.0124113  
C671     C      0.523470000000     0.611650000000     0.230170000000    -0.011138   
C672     C      0.964970000000     0.610850000000     0.232480000000    -0.0119916  
C673     C      0.495720000000     0.561890000000     0.737990000000     0.399382   
C674     C      0.502380000000     0.938220000000     0.743140000000     0.399246   
C675     C      0.499270000000     0.502420000000     0.802700000000     0.399702   
C676     C      0.498100000000     0.997920000000     0.679920000000     0.399412   
C677     C      0.497120000000     0.688690000000     0.750660000000     0.399456   
C678     C      0.503540000000     0.812230000000     0.758220000000     0.399756   
C679     C      0.505920000000     0.754060000000     0.692700000000     0.401172   
C680     C      0.495480000000     0.746550000000     0.814680000000     0.402305   
C681     C      0.755500000000     0.565040000000     0.753890000000     0.39959    
C682     C      0.754740000000     0.941250000000     0.751820000000     0.399971   
C683     C      0.755970000000     0.501950000000     0.813580000000     0.399628   
C684     C      0.754970000000     0.004060000000     0.690760000000     0.39918    
C685     C      0.754510000000     0.691420000000     0.739420000000     0.399803   
C686     C      0.753760000000     0.815190000000     0.736660000000     0.39969    
C687     C      0.756010000000     0.752130000000     0.677480000000     0.401134   
C688     C      0.751540000000     0.755050000000     0.799980000000     0.400496   
C689     C      0.938980000000     0.998490000000     0.984870000000     0.399522   
C690     C      0.562960000000     0.993980000000     0.996260000000     0.400541   
C691     C      0.506450000000     0.994560000000     0.928600000000     0.399293   
C692     C      0.496360000000     0.997650000000     0.551020000000     0.399238   
C693     C      0.941820000000     0.747920000000     0.011040000000     0.399772   
C694     C      0.565290000000     0.751530000000     0.994270000000     0.398693   
C695     C      0.495640000000     0.745660000000     0.942770000000     0.401629   
C696     C      0.510780000000     0.753970000000     0.564210000000     0.401239   
C697     C      0.691190000000     0.993690000000     0.997810000000     0.40019    
C698     C      0.815250000000     0.997060000000     0.007950000000     0.398563   
C699     C      0.757330000000     0.996780000000     0.942460000000     0.398267   
C700     C      0.748180000000     0.994090000000     0.564910000000     0.398395   
C701     C      0.694130000000     0.751610000000     0.489900000000     0.39819    
C702     C      0.818660000000     0.748630000000     0.486700000000     0.399734   
C703     C      0.755950000000     0.748860000000     0.926180000000     0.400683   
C704     C      0.757710000000     0.751210000000     0.548730000000     0.401036   
C705     C      0.868480000000     0.718660000000     0.986530000000    -0.0110928  
C706     C      0.869040000000     0.777090000000     0.988330000000    -0.0100814  
C707     C      0.892160000000     0.717780000000     0.513200000000    -0.0119857  
C708     C      0.891360000000     0.775870000000     0.515780000000    -0.0111951  
C709     C      0.614090000000     0.722860000000     0.982770000000    -0.00949125 
C710     C      0.613310000000     0.781040000000     0.980370000000    -0.01241    
C711     C      0.644820000000     0.723690000000     0.500540000000    -0.0118725  
C712     C      0.645290000000     0.782110000000     0.496500000000    -0.0124469  
C713     C      0.865010000000     0.527060000000     0.011050000000    -0.0137577  
C714     C      0.865770000000     0.968830000000     0.507760000000    -0.0113928  
C715     C      0.889300000000     0.528790000000     0.984920000000    -0.0107671  
C716     C      0.888390000000     0.970690000000     0.480610000000    -0.0114768  
C717     C      0.641960000000     0.021800000000     0.987030000000    -0.00970106 
C718     C      0.642500000000     0.963410000000     0.488950000000    -0.0123558  
C719     C      0.612290000000     0.522150000000     0.006410000000    -0.0127347  
C720     C      0.611410000000     0.463790000000     0.506670000000    -0.011959   
C721     C      0.743610000000     0.777860000000     0.596870000000    -0.0113602  
C722     C      0.772860000000     0.726290000000     0.597580000000    -0.0114228  
C723     C      0.731600000000     0.766920000000     0.628360000000    -0.0112919  
C724     C      0.783260000000     0.737480000000     0.629620000000    -0.0114277  
C725     C      0.781680000000     0.766240000000     0.878570000000    -0.0112535  
C726     C      0.739940000000     0.724830000000     0.877070000000    -0.0105847  
C727     C      0.769470000000     0.779500000000     0.848110000000    -0.0109928  
C728     C      0.725610000000     0.740290000000     0.848570000000    -0.0107298  
C729     C      0.735070000000     0.526520000000     0.642280000000    -0.0115387  
C730     C      0.778640000000     0.486880000000     0.641860000000    -0.0108558  
C731     C      0.722140000000     0.012490000000     0.612330000000    -0.00951144 
C732     C      0.763070000000     0.970430000000     0.614570000000    -0.0104657  
C733     C      0.731190000000     0.985250000000     0.862080000000    -0.0130346  
C734     C      0.782740000000     0.014810000000     0.862180000000    -0.0105937  
C735     C      0.743440000000     0.472540000000     0.892910000000    -0.0116901  
C736     C      0.772550000000     0.524110000000     0.894880000000    -0.0115521  
C737     C      0.783160000000     0.864650000000     0.731790000000    -0.011797   
C738     C      0.724490000000     0.864850000000     0.732210000000    -0.0117684  
C739     C      0.783540000000     0.891330000000     0.755070000000    -0.0117636  
C740     C      0.724760000000     0.891960000000     0.755070000000    -0.011961   
C741     C      0.726160000000     0.614510000000     0.758880000000    -0.0117057  
C742     C      0.784840000000     0.614640000000     0.758380000000    -0.0118049  
C743     C      0.725780000000     0.641500000000     0.735950000000    -0.0118461  
C744     C      0.784570000000     0.642200000000     0.736060000000    -0.0118982  
C745     C      0.527240000000     0.730730000000     0.613430000000    -0.0112786  
C746     C      0.998330000000     0.782430000000     0.611900000000    -0.00799851 
C747     C      0.536100000000     0.741830000000     0.645940000000    -0.0115207  
C748     C      0.984720000000     0.771570000000     0.642870000000    -0.0107599  
C749     C      0.966190000000     0.757530000000     0.862330000000    -0.0110673  
C750     C      0.517560000000     0.727550000000     0.863360000000    -0.0109361  
C751     C      0.976300000000     0.768610000000     0.894480000000    -0.011144   
C752     C      0.505170000000     0.716830000000     0.894760000000    -0.0115385  
C753     C      0.980970000000     0.972470000000     0.599660000000    -0.0112827  
C754     C      0.510330000000     0.023950000000     0.599490000000    -0.0114528  
C755     C      0.971060000000     0.483070000000     0.632050000000    -0.0111031  
C756     C      0.522770000000     0.512340000000     0.630670000000    -0.0114356  
C757     C      0.518650000000     0.526310000000     0.850670000000    -0.011269   
C758     C      0.976100000000     0.985610000000     0.851880000000    -0.0130467  
C759     C      0.531840000000     0.513300000000     0.880990000000    -0.0111442  
C760     C      0.992200000000     0.969960000000     0.879290000000    -0.00615004 
C761     C      0.475030000000     0.887690000000     0.740690000000    -0.0114821  
C762     C      0.533870000000     0.889500000000     0.741760000000    -0.0126444  
C763     C      0.975510000000     0.862060000000     0.764820000000    -0.00993295 
C764     C      0.034040000000     0.861360000000     0.763790000000    -0.0123127  
C765     C      0.524420000000     0.638230000000     0.753220000000    -0.0114134  
C766     C      0.965530000000     0.640130000000     0.752960000000    -0.0123773  
C767     C      0.523470000000     0.611650000000     0.730170000000    -0.0111976  
C768     C      0.964970000000     0.610850000000     0.732480000000    -0.0119982  
Cu1      Cu     0.470040000000     0.498260000000     0.241560000000     0.841969   
Cu2      Cu     0.027720000000     0.001910000000     0.240970000000     0.841411   
Cu3      Cu     0.471760000000     0.252350000000     0.251560000000     0.842486   
Cu4      Cu     0.029290000000     0.248620000000     0.255930000000     0.843797   
Cu5      Cu     0.226440000000     0.503320000000     0.252410000000     0.84005    
Cu6      Cu     0.284130000000     0.002960000000     0.252020000000     0.841675   
Cu7      Cu     0.225120000000     0.253130000000     0.237750000000     0.842889   
Cu8      Cu     0.282780000000     0.253530000000     0.239640000000     0.841718   
Cu9      Cu     0.002580000000     0.024860000000     0.489230000000     0.837088   
Cu10     Cu     0.499550000000     0.467490000000     0.990420000000     0.84404    
Cu11     Cu     0.002160000000     0.278460000000     0.501650000000     0.839741   
Cu12     Cu     0.505050000000     0.221170000000     0.005140000000     0.842698   
Cu13     Cu     0.252400000000     0.024060000000     0.504220000000     0.839523   
Cu14     Cu     0.253840000000     0.466770000000     0.003110000000     0.840279   
Cu15     Cu     0.257000000000     0.278720000000     0.486980000000     0.842297   
Cu16     Cu     0.255820000000     0.221410000000     0.988020000000     0.841831   
Cu17     Cu     0.470040000000     0.498260000000     0.741560000000     0.842062   
Cu18     Cu     0.027720000000     0.001910000000     0.740970000000     0.841342   
Cu19     Cu     0.471760000000     0.252350000000     0.751560000000     0.8425     
Cu20     Cu     0.029290000000     0.248620000000     0.755930000000     0.843803   
Cu21     Cu     0.226440000000     0.503320000000     0.752410000000     0.840062   
Cu22     Cu     0.284130000000     0.002960000000     0.752020000000     0.84154    
Cu23     Cu     0.225120000000     0.253130000000     0.737750000000     0.842887   
Cu24     Cu     0.282780000000     0.253530000000     0.739640000000     0.841736   
Cu25     Cu     0.002580000000     0.024860000000     0.989230000000     0.838357   
Cu26     Cu     0.499550000000     0.467490000000     0.490430000000     0.842694   
Cu27     Cu     0.002160000000     0.278470000000     0.001650000000     0.837569   
Cu28     Cu     0.505050000000     0.221170000000     0.505140000000     0.844768   
Cu29     Cu     0.252400000000     0.024060000000     0.004220000000     0.837278   
Cu30     Cu     0.253840000000     0.466770000000     0.503110000000     0.841234   
Cu31     Cu     0.257000000000     0.278720000000     0.986980000000     0.843609   
Cu32     Cu     0.255820000000     0.221410000000     0.488020000000     0.840569   
Cu33     Cu     0.470040000000     0.998260000000     0.241560000000     0.840476   
Cu34     Cu     0.027720000000     0.501910000000     0.240970000000     0.839831   
Cu35     Cu     0.471760000000     0.752350000000     0.251560000000     0.84249    
Cu36     Cu     0.029290000000     0.748620000000     0.255930000000     0.843806   
Cu37     Cu     0.226440000000     0.003320000000     0.252410000000     0.841433   
Cu38     Cu     0.284130000000     0.502960000000     0.252020000000     0.840866   
Cu39     Cu     0.225120000000     0.753130000000     0.237750000000     0.842893   
Cu40     Cu     0.282780000000     0.753530000000     0.239640000000     0.841723   
Cu41     Cu     0.002580000000     0.524860000000     0.489230000000     0.836595   
Cu42     Cu     0.499550000000     0.967490000000     0.990420000000     0.843185   
Cu43     Cu     0.002160000000     0.778460000000     0.501650000000     0.83978    
Cu44     Cu     0.505050000000     0.721180000000     0.005140000000     0.842666   
Cu45     Cu     0.252400000000     0.524060000000     0.504220000000     0.839021   
Cu46     Cu     0.253840000000     0.966770000000     0.003110000000     0.83946    
Cu47     Cu     0.257000000000     0.778720000000     0.486980000000     0.842325   
Cu48     Cu     0.255820000000     0.721410000000     0.988020000000     0.841805   
Cu49     Cu     0.470040000000     0.998260000000     0.741560000000     0.840582   
Cu50     Cu     0.027720000000     0.501910000000     0.740970000000     0.839871   
Cu51     Cu     0.471760000000     0.752350000000     0.751560000000     0.842505   
Cu52     Cu     0.029290000000     0.748620000000     0.755930000000     0.843811   
Cu53     Cu     0.226440000000     0.003320000000     0.752410000000     0.841457   
Cu54     Cu     0.284130000000     0.502970000000     0.752020000000     0.840698   
Cu55     Cu     0.225120000000     0.753130000000     0.737750000000     0.843019   
Cu56     Cu     0.282780000000     0.753530000000     0.739640000000     0.841722   
Cu57     Cu     0.002580000000     0.524860000000     0.989230000000     0.837862   
Cu58     Cu     0.499550000000     0.967490000000     0.490430000000     0.841851   
Cu59     Cu     0.002160000000     0.778470000000     0.001650000000     0.83748    
Cu60     Cu     0.505050000000     0.721170000000     0.505140000000     0.84481    
Cu61     Cu     0.252400000000     0.524060000000     0.004220000000     0.836799   
Cu62     Cu     0.253840000000     0.966770000000     0.503110000000     0.84039    
Cu63     Cu     0.257000000000     0.778720000000     0.986980000000     0.843636   
Cu64     Cu     0.255820000000     0.721410000000     0.488020000000     0.8406     
Cu65     Cu     0.970040000000     0.498260000000     0.241560000000     0.843949   
Cu66     Cu     0.527720000000     0.001910000000     0.240970000000     0.842849   
Cu67     Cu     0.971770000000     0.252350000000     0.251560000000     0.844121   
Cu68     Cu     0.529290000000     0.248620000000     0.255930000000     0.845534   
Cu69     Cu     0.726450000000     0.503320000000     0.252410000000     0.839993   
Cu70     Cu     0.784130000000     0.002960000000     0.252020000000     0.841551   
Cu71     Cu     0.725120000000     0.253130000000     0.237750000000     0.842874   
Cu72     Cu     0.782780000000     0.253530000000     0.239640000000     0.841716   
Cu73     Cu     0.502580000000     0.024860000000     0.489230000000     0.842411   
Cu74     Cu     0.999550000000     0.467490000000     0.990420000000     0.84946    
Cu75     Cu     0.502160000000     0.278460000000     0.501650000000     0.843008   
Cu76     Cu     0.005050000000     0.221170000000     0.005140000000     0.839797   
Cu77     Cu     0.752400000000     0.024060000000     0.504220000000     0.839516   
Cu78     Cu     0.753840000000     0.466770000000     0.003110000000     0.840274   
Cu79     Cu     0.757000000000     0.278720000000     0.486980000000     0.842306   
Cu80     Cu     0.755820000000     0.221410000000     0.988020000000     0.841816   
Cu81     Cu     0.970040000000     0.498260000000     0.741560000000     0.844005   
Cu82     Cu     0.527720000000     0.001910000000     0.740970000000     0.842691   
Cu83     Cu     0.971770000000     0.252350000000     0.751560000000     0.844104   
Cu84     Cu     0.529290000000     0.248620000000     0.755930000000     0.845551   
Cu85     Cu     0.726440000000     0.503320000000     0.752410000000     0.840049   
Cu86     Cu     0.784130000000     0.002960000000     0.752020000000     0.841534   
Cu87     Cu     0.725110000000     0.253130000000     0.737750000000     0.842881   
Cu88     Cu     0.782780000000     0.253530000000     0.739640000000     0.841833   
Cu89     Cu     0.502580000000     0.024860000000     0.989230000000     0.843623   
Cu90     Cu     0.999550000000     0.467490000000     0.490430000000     0.848183   
Cu91     Cu     0.502160000000     0.278470000000     0.001650000000     0.840835   
Cu92     Cu     0.005050000000     0.221170000000     0.505140000000     0.841746   
Cu93     Cu     0.752400000000     0.024060000000     0.004220000000     0.837283   
Cu94     Cu     0.753840000000     0.466770000000     0.503110000000     0.841224   
Cu95     Cu     0.757000000000     0.278720000000     0.986980000000     0.843583   
Cu96     Cu     0.755820000000     0.221410000000     0.488020000000     0.840555   
Cu97     Cu     0.970040000000     0.998260000000     0.241560000000     0.842452   
Cu98     Cu     0.527720000000     0.501910000000     0.240970000000     0.841263   
Cu99     Cu     0.971770000000     0.752350000000     0.251560000000     0.844121   
Cu100    Cu     0.529290000000     0.748620000000     0.255930000000     0.845539   
Cu101    Cu     0.726450000000     0.003320000000     0.252410000000     0.841386   
Cu102    Cu     0.784130000000     0.502960000000     0.252020000000     0.840738   
Cu103    Cu     0.725120000000     0.753130000000     0.237750000000     0.842878   
Cu104    Cu     0.782780000000     0.753530000000     0.239640000000     0.841721   
Cu105    Cu     0.502580000000     0.524860000000     0.489230000000     0.841913   
Cu106    Cu     0.999550000000     0.967490000000     0.990420000000     0.848588   
Cu107    Cu     0.502160000000     0.778460000000     0.501650000000     0.843036   
Cu108    Cu     0.005050000000     0.721180000000     0.005140000000     0.839774   
Cu109    Cu     0.752400000000     0.524060000000     0.504220000000     0.839011   
Cu110    Cu     0.753840000000     0.966770000000     0.003110000000     0.839449   
Cu111    Cu     0.757000000000     0.778720000000     0.486980000000     0.842334   
Cu112    Cu     0.755820000000     0.721410000000     0.988020000000     0.84179    
Cu113    Cu     0.970040000000     0.998260000000     0.741560000000     0.84252    
Cu114    Cu     0.527720000000     0.501910000000     0.740970000000     0.841213   
Cu115    Cu     0.971770000000     0.752350000000     0.751560000000     0.844104   
Cu116    Cu     0.529290000000     0.748620000000     0.755930000000     0.845554   
Cu117    Cu     0.726440000000     0.003320000000     0.752410000000     0.841455   
Cu118    Cu     0.784130000000     0.502970000000     0.752020000000     0.840689   
Cu119    Cu     0.725110000000     0.753130000000     0.737750000000     0.843013   
Cu120    Cu     0.782780000000     0.753530000000     0.739640000000     0.841819   
Cu121    Cu     0.502580000000     0.524860000000     0.989230000000     0.843124   
Cu122    Cu     0.999550000000     0.967490000000     0.490430000000     0.847322   
Cu123    Cu     0.502160000000     0.778470000000     0.001650000000     0.840735   
Cu124    Cu     0.005050000000     0.721170000000     0.505140000000     0.841797   
Cu125    Cu     0.752400000000     0.524060000000     0.004220000000     0.836801   
Cu126    Cu     0.753840000000     0.966770000000     0.503110000000     0.840374   
Cu127    Cu     0.757000000000     0.778720000000     0.986980000000     0.84361    
Cu128    Cu     0.755820000000     0.721410000000     0.488020000000     0.840587   
H1       H      0.383180000000     0.279130000000     0.466880000000     0.0400831  
H2       H      0.381700000000     0.217300000000     0.464460000000     0.040065   
H3       H      0.407400000000     0.197020000000     0.510570000000     0.042983   
H4       H      0.354320000000     0.298290000000     0.990210000000     0.0431536  
H5       H      0.405860000000     0.297290000000     0.016160000000     0.0428818  
H6       H      0.377160000000     0.275550000000     0.037300000000     0.0396262  
H7       H      0.353200000000     0.197820000000     0.487970000000     0.0432717  
H8       H      0.378940000000     0.215270000000     0.035170000000     0.0392076  
H9       H      0.117290000000     0.282100000000     0.455020000000     0.0393655  
H10      H      0.119520000000     0.220450000000     0.457770000000     0.0390038  
H11      H      0.158220000000     0.202280000000     0.994920000000     0.0446568  
H12      H      0.099710000000     0.302010000000     0.487050000000     0.0427986  
H13      H      0.158830000000     0.302000000000     0.487020000000     0.0431318  
H14      H      0.141330000000     0.286730000000     0.021450000000     0.0382678  
H15      H      0.100820000000     0.201850000000     0.989940000000     0.0428593  
H16      H      0.139480000000     0.223220000000     0.025670000000     0.0409652  
H17      H      0.379680000000     0.466550000000     0.029340000000     0.0400113  
H18      H      0.377740000000     0.027700000000     0.033430000000     0.0400719  
H19      H      0.404630000000     0.049310000000     0.488710000000     0.0429266  
H20      H      0.351220000000     0.447560000000     0.005400000000     0.0430038  
H21      H      0.402870000000     0.449250000000     0.979960000000     0.0431847  
H22      H      0.374460000000     0.471470000000     0.458940000000     0.0400773  
H23      H      0.349730000000     0.047930000000     0.509960000000     0.0432006  
H24      H      0.376590000000     0.032330000000     0.462800000000     0.0395636  
H25      H      0.137220000000     0.460250000000     0.964010000000     0.0387849  
H26      H      0.135230000000     0.522600000000     0.462240000000     0.0399931  
H27      H      0.098760000000     0.043420000000     0.500610000000     0.0429556  
H28      H      0.156380000000     0.442980000000     0.996620000000     0.0431802  
H29      H      0.097410000000     0.443150000000     0.999750000000     0.0442819  
H30      H      0.116660000000     0.961600000000     0.031720000000     0.0396805  
H31      H      0.155630000000     0.043140000000     0.492230000000     0.042982   
H32      H      0.119060000000     0.023730000000     0.531160000000     0.0392958  
H33      H      0.255700000000     0.207060000000     0.100230000000     0.0430576  
H34      H      0.223830000000     0.287920000000     0.083480000000     0.0393301  
H35      H      0.212370000000     0.249850000000     0.124920000000     0.0431722  
H36      H      0.293420000000     0.216870000000     0.084900000000     0.0385224  
H37      H      0.292720000000     0.217440000000     0.142930000000     0.0391773  
H38      H      0.302410000000     0.254760000000     0.127000000000     0.0425792  
H39      H      0.261260000000     0.296540000000     0.100280000000     0.0425196  
H40      H      0.221750000000     0.287130000000     0.141120000000     0.0393537  
H41      H      0.256130000000     0.206110000000     0.369430000000     0.0420927  
H42      H      0.301590000000     0.250520000000     0.373200000000     0.0395027  
H43      H      0.289490000000     0.287920000000     0.334000000000     0.0410118  
H44      H      0.220980000000     0.214140000000     0.391120000000     0.0394401  
H45      H      0.214010000000     0.222210000000     0.334200000000     0.0397976  
H46      H      0.207590000000     0.257270000000     0.356210000000     0.0420051  
H47      H      0.291030000000     0.285470000000     0.393060000000     0.0411885  
H48      H      0.254660000000     0.300040000000     0.353550000000     0.0392828  
H49      H      0.296590000000     0.003280000000     0.132890000000     0.0432924  
H50      H      0.249600000000     0.047010000000     0.136010000000     0.0395392  
H51      H      0.212900000000     0.031380000000     0.097350000000     0.040618   
H52      H      0.290540000000     0.469250000000     0.156540000000     0.0397795  
H53      H      0.281350000000     0.458530000000     0.100610000000     0.0400724  
H54      H      0.246600000000     0.452590000000     0.123590000000     0.041739   
H55      H      0.215370000000     0.035190000000     0.156670000000     0.041191   
H56      H      0.202040000000     0.497320000000     0.118520000000     0.0388759  
H57      H      0.302050000000     0.497560000000     0.363690000000     0.042967   
H58      H      0.221170000000     0.465800000000     0.348300000000     0.039237   
H59      H      0.261030000000     0.454060000000     0.388340000000     0.0425744  
H60      H      0.291980000000     0.035640000000     0.349950000000     0.0392089  
H61      H      0.293140000000     0.032930000000     0.407920000000     0.0387891  
H62      H      0.255250000000     0.043360000000     0.393430000000     0.0433166  
H63      H      0.212050000000     0.502150000000     0.366590000000     0.0429186  
H64      H      0.223740000000     0.961740000000     0.405840000000     0.0394311  
H65      H      0.222590000000     0.374580000000     0.208500000000     0.0395108  
H66      H      0.284620000000     0.374730000000     0.208180000000     0.0393134  
H67      H      0.304770000000     0.405670000000     0.250990000000     0.0427063  
H68      H      0.203360000000     0.350430000000     0.236470000000     0.0431616  
H69      H      0.203850000000     0.406700000000     0.250840000000     0.0433127  
H70      H      0.222680000000     0.382260000000     0.278780000000     0.0395122  
H71      H      0.304300000000     0.350080000000     0.235440000000     0.0429096  
H72      H      0.285310000000     0.381270000000     0.278660000000     0.0396226  
H73      H      0.286880000000     0.123900000000     0.282270000000     0.039636   
H74      H      0.224680000000     0.124250000000     0.282630000000     0.0396017  
H75      H      0.204550000000     0.155770000000     0.240250000000     0.0426754  
H76      H      0.305930000000     0.100260000000     0.253780000000     0.0431859  
H77      H      0.305420000000     0.156910000000     0.240640000000     0.0433135  
H78      H      0.286780000000     0.132970000000     0.212170000000     0.0395757  
H79      H      0.205020000000     0.099990000000     0.254990000000     0.0429288  
H80      H      0.224030000000     0.131770000000     0.212230000000     0.0398409  
H81      H      0.016450000000     0.300470000000     0.116190000000     0.0401014  
H82      H      0.048450000000     0.221890000000     0.101410000000     0.0378905  
H83      H      0.054950000000     0.259550000000     0.144200000000     0.0422185  
H84      H      0.479390000000     0.293280000000     0.097940000000     0.0399832  
H85      H      0.475090000000     0.291930000000     0.155560000000     0.0382874  
H86      H      0.465060000000     0.255220000000     0.138540000000     0.0439531  
H87      H      0.010460000000     0.211050000000     0.115260000000     0.0437857  
H88      H      0.545480000000     0.221830000000     0.159360000000     0.0394322  
H89      H      0.526220000000     0.207060000000     0.350190000000     0.0381473  
H90      H      0.447610000000     0.239600000000     0.364780000000     0.041711   
H91      H      0.455500000000     0.277040000000     0.407460000000     0.0374672  
H92      H      0.037740000000     0.243480000000     0.366880000000     0.0441009  
H93      H      0.986540000000     0.199150000000     0.391220000000     0.0436467  
H94      H      0.024530000000     0.205620000000     0.407860000000     0.0402079  
H95      H      0.456090000000     0.277460000000     0.349320000000     0.0393381  
H96      H      0.992620000000     0.288600000000     0.392030000000     0.0450017  
H97      H      0.029960000000     0.534200000000     0.086030000000     0.039387   
H98      H      0.498150000000     0.453170000000     0.101720000000     0.0433299  
H99      H      0.461820000000     0.462790000000     0.145140000000     0.0388245  
H100     H      0.992810000000     0.042620000000     0.103510000000     0.0446753  
H101     H      0.041770000000     0.995160000000     0.126630000000     0.041846   
H102     H      0.033000000000     0.032240000000     0.143630000000     0.0383452  
H103     H      0.460230000000     0.463300000000     0.087090000000     0.0380337  
H104     H      0.451820000000     0.000350000000     0.130020000000     0.0439157  
H105     H      0.457810000000     0.501720000000     0.360690000000     0.0425566  
H106     H      0.503650000000     0.046620000000     0.356430000000     0.039394   
H107     H      0.040280000000     0.032770000000     0.395700000000     0.0403392  
H108     H      0.464560000000     0.467490000000     0.337490000000     0.0394876  
H109     H      0.474300000000     0.457690000000     0.393430000000     0.0397965  
H110     H      0.009190000000     0.452510000000     0.370450000000     0.039823   
H111     H      0.038180000000     0.035090000000     0.336090000000     0.0409047  
H112     H      0.052510000000     0.998740000000     0.375220000000     0.0378755  
H113     H      0.037280000000     0.380730000000     0.217840000000     0.0394971  
H114     H      0.974030000000     0.376770000000     0.217430000000     0.0407613  
H115     H      0.453920000000     0.347890000000     0.262490000000     0.0429827  
H116     H      0.054090000000     0.404720000000     0.247380000000     0.0430967  
H117     H      0.054770000000     0.346650000000     0.258630000000     0.0427625  
H118     H      0.536570000000     0.370220000000     0.287780000000     0.0393479  
H119     H      0.453330000000     0.401560000000     0.243790000000     0.0431903  
H120     H      0.475080000000     0.373050000000     0.288070000000     0.0391894  
H121     H      0.462220000000     0.132700000000     0.277320000000     0.039526   
H122     H      0.025940000000     0.128320000000     0.276890000000     0.0401035  
H123     H      0.045150000000     0.097650000000     0.232740000000     0.0432127  
H124     H      0.445340000000     0.155140000000     0.246710000000     0.0431664  
H125     H      0.444460000000     0.096360000000     0.238940000000     0.0428146  
H126     H      0.461700000000     0.118380000000     0.208140000000     0.0392176  
H127     H      0.046020000000     0.151960000000     0.248990000000     0.0430683  
H128     H      0.023440000000     0.121630000000     0.206470000000     0.0389756  
H129     H      0.383180000000     0.279130000000     0.966880000000     0.0400526  
H130     H      0.381700000000     0.217300000000     0.964460000000     0.0400464  
H131     H      0.407400000000     0.197020000000     0.010570000000     0.0429272  
H132     H      0.354320000000     0.298290000000     0.490210000000     0.0430864  
H133     H      0.405870000000     0.297300000000     0.516160000000     0.0428753  
H134     H      0.377160000000     0.275550000000     0.537300000000     0.0395733  
H135     H      0.353200000000     0.197820000000     0.987970000000     0.0433588  
H136     H      0.378940000000     0.215270000000     0.535170000000     0.0391764  
H137     H      0.117290000000     0.282100000000     0.955020000000     0.0394419  
H138     H      0.119520000000     0.220450000000     0.957770000000     0.0386326  
H139     H      0.158220000000     0.202280000000     0.494920000000     0.0429952  
H140     H      0.099710000000     0.302010000000     0.987050000000     0.0431619  
H141     H      0.158830000000     0.302000000000     0.987020000000     0.0430152  
H142     H      0.141330000000     0.286730000000     0.521450000000     0.0395664  
H143     H      0.100820000000     0.201850000000     0.489940000000     0.0429785  
H144     H      0.139480000000     0.223220000000     0.525670000000     0.0405803  
H145     H      0.379680000000     0.466550000000     0.529340000000     0.0399933  
H146     H      0.377740000000     0.027700000000     0.533430000000     0.0400355  
H147     H      0.404630000000     0.049310000000     0.988720000000     0.043003   
H148     H      0.351220000000     0.447560000000     0.505400000000     0.0430664  
H149     H      0.402870000000     0.449250000000     0.479960000000     0.04315    
H150     H      0.374460000000     0.471470000000     0.958940000000     0.0400463  
H151     H      0.349730000000     0.047930000000     0.009960000000     0.0431493  
H152     H      0.376590000000     0.032330000000     0.962800000000     0.0395223  
H153     H      0.137220000000     0.460250000000     0.464020000000     0.039097   
H154     H      0.135230000000     0.522600000000     0.962240000000     0.0398761  
H155     H      0.098760000000     0.043420000000     0.000610000000     0.0426407  
H156     H      0.156380000000     0.442980000000     0.496620000000     0.0431358  
H157     H      0.097410000000     0.443150000000     0.499750000000     0.0427255  
H158     H      0.116660000000     0.961600000000     0.531720000000     0.0393658  
H159     H      0.155630000000     0.043140000000     0.992230000000     0.0430505  
H160     H      0.119060000000     0.023730000000     0.031160000000     0.0392752  
H161     H      0.255700000000     0.207060000000     0.600230000000     0.0431606  
H162     H      0.223830000000     0.287920000000     0.583480000000     0.0394985  
H163     H      0.212370000000     0.249850000000     0.624910000000     0.0432362  
H164     H      0.293420000000     0.216870000000     0.584900000000     0.0386657  
H165     H      0.292720000000     0.217440000000     0.642930000000     0.0391997  
H166     H      0.302410000000     0.254760000000     0.627000000000     0.0426265  
H167     H      0.261260000000     0.296540000000     0.600280000000     0.0426113  
H168     H      0.221750000000     0.287130000000     0.641130000000     0.0393968  
H169     H      0.256130000000     0.206110000000     0.869430000000     0.0421296  
H170     H      0.301590000000     0.250520000000     0.873200000000     0.0395259  
H171     H      0.289490000000     0.287930000000     0.834000000000     0.0410037  
H172     H      0.220980000000     0.214140000000     0.891120000000     0.0394745  
H173     H      0.214010000000     0.222210000000     0.834200000000     0.0398006  
H174     H      0.207590000000     0.257280000000     0.856210000000     0.0419998  
H175     H      0.291030000000     0.285470000000     0.893060000000     0.0412317  
H176     H      0.254660000000     0.300040000000     0.853550000000     0.0392915  
H177     H      0.296590000000     0.003280000000     0.632890000000     0.0433583  
H178     H      0.249600000000     0.047010000000     0.636010000000     0.0395771  
H179     H      0.212900000000     0.031380000000     0.597350000000     0.0407302  
H180     H      0.290540000000     0.469250000000     0.656540000000     0.0398377  
H181     H      0.281350000000     0.458530000000     0.600620000000     0.0401007  
H182     H      0.246600000000     0.452590000000     0.623590000000     0.0417811  
H183     H      0.215370000000     0.035190000000     0.656680000000     0.0412195  
H184     H      0.202040000000     0.497320000000     0.618520000000     0.0389453  
H185     H      0.302060000000     0.497560000000     0.863690000000     0.0429822  
H186     H      0.221180000000     0.465800000000     0.848300000000     0.0392575  
H187     H      0.261030000000     0.454060000000     0.888340000000     0.0426352  
H188     H      0.291980000000     0.035640000000     0.849950000000     0.039213   
H189     H      0.293140000000     0.032930000000     0.907920000000     0.0389307  
H190     H      0.255250000000     0.043360000000     0.893430000000     0.0433843  
H191     H      0.212050000000     0.502150000000     0.866590000000     0.042944   
H192     H      0.223740000000     0.961740000000     0.905840000000     0.0395104  
H193     H      0.222590000000     0.374580000000     0.708490000000     0.0394997  
H194     H      0.284620000000     0.374730000000     0.708180000000     0.0393537  
H195     H      0.304770000000     0.405670000000     0.750990000000     0.0427024  
H196     H      0.203360000000     0.350440000000     0.736470000000     0.0431437  
H197     H      0.203860000000     0.406700000000     0.750840000000     0.0433477  
H198     H      0.222680000000     0.382260000000     0.778780000000     0.0395329  
H199     H      0.304300000000     0.350080000000     0.735440000000     0.0429344  
H200     H      0.285310000000     0.381270000000     0.778660000000     0.0396207  
H201     H      0.286880000000     0.123900000000     0.782270000000     0.0396185  
H202     H      0.224680000000     0.124250000000     0.782630000000     0.0396094  
H203     H      0.204550000000     0.155770000000     0.740250000000     0.0426836  
H204     H      0.305930000000     0.100260000000     0.753780000000     0.0431694  
H205     H      0.305420000000     0.156910000000     0.740640000000     0.0433149  
H206     H      0.286780000000     0.132970000000     0.712170000000     0.0395835  
H207     H      0.205020000000     0.099990000000     0.754990000000     0.0429365  
H208     H      0.224030000000     0.131770000000     0.712230000000     0.039858   
H209     H      0.016450000000     0.300460000000     0.616190000000     0.0401937  
H210     H      0.048450000000     0.221890000000     0.601410000000     0.0380135  
H211     H      0.054950000000     0.259550000000     0.644200000000     0.0422679  
H212     H      0.479390000000     0.293280000000     0.597940000000     0.0400495  
H213     H      0.475090000000     0.291930000000     0.655560000000     0.038269   
H214     H      0.465060000000     0.255230000000     0.638540000000     0.0439337  
H215     H      0.010460000000     0.211050000000     0.615260000000     0.0438317  
H216     H      0.545480000000     0.221830000000     0.659360000000     0.0394492  
H217     H      0.526220000000     0.207060000000     0.850200000000     0.0381572  
H218     H      0.447610000000     0.239610000000     0.864780000000     0.0417495  
H219     H      0.455500000000     0.277030000000     0.907460000000     0.0376163  
H220     H      0.037740000000     0.243480000000     0.866880000000     0.0441155  
H221     H      0.986540000000     0.199150000000     0.891220000000     0.0437161  
H222     H      0.024530000000     0.205620000000     0.907860000000     0.0402828  
H223     H      0.456090000000     0.277460000000     0.849320000000     0.0393542  
H224     H      0.992620000000     0.288600000000     0.892030000000     0.0450596  
H225     H      0.029960000000     0.534200000000     0.586030000000     0.0395166  
H226     H      0.498150000000     0.453170000000     0.601720000000     0.0434635  
H227     H      0.461810000000     0.462790000000     0.645140000000     0.038832   
H228     H      0.992810000000     0.042620000000     0.603510000000     0.0447459  
H229     H      0.041770000000     0.995160000000     0.626630000000     0.0419111  
H230     H      0.033000000000     0.032240000000     0.643630000000     0.0383956  
H231     H      0.460230000000     0.463300000000     0.587090000000     0.0382033  
H232     H      0.451820000000     0.000350000000     0.630020000000     0.0439606  
H233     H      0.457810000000     0.501720000000     0.860690000000     0.0425743  
H234     H      0.503650000000     0.046620000000     0.856430000000     0.0394139  
H235     H      0.040280000000     0.032770000000     0.895700000000     0.0403972  
H236     H      0.464560000000     0.467490000000     0.837490000000     0.0394976  
H237     H      0.474300000000     0.457690000000     0.893430000000     0.0398282  
H238     H      0.009190000000     0.452510000000     0.870450000000     0.0398568  
H239     H      0.038180000000     0.035090000000     0.836100000000     0.0409121  
H240     H      0.052510000000     0.998740000000     0.875220000000     0.037893   
H241     H      0.037280000000     0.380730000000     0.717840000000     0.0395079  
H242     H      0.974030000000     0.376770000000     0.717430000000     0.0407726  
H243     H      0.453920000000     0.347880000000     0.762490000000     0.0430022  
H244     H      0.054090000000     0.404710000000     0.747380000000     0.0430954  
H245     H      0.054770000000     0.346650000000     0.758630000000     0.0427689  
H246     H      0.536570000000     0.370220000000     0.787780000000     0.0393392  
H247     H      0.453330000000     0.401560000000     0.743790000000     0.0431829  
H248     H      0.475080000000     0.373050000000     0.788070000000     0.0392105  
H249     H      0.462220000000     0.132700000000     0.777330000000     0.0394961  
H250     H      0.025940000000     0.128320000000     0.776890000000     0.0401097  
H251     H      0.045150000000     0.097650000000     0.732740000000     0.0432242  
H252     H      0.445330000000     0.155140000000     0.746710000000     0.043129   
H253     H      0.444460000000     0.096360000000     0.738940000000     0.0428669  
H254     H      0.461700000000     0.118380000000     0.708140000000     0.0392772  
H255     H      0.046020000000     0.151960000000     0.748990000000     0.0430731  
H256     H      0.023440000000     0.121630000000     0.706470000000     0.0390003  
H257     H      0.383180000000     0.779130000000     0.466880000000     0.0400829  
H258     H      0.381700000000     0.717300000000     0.464460000000     0.0400628  
H259     H      0.407400000000     0.697020000000     0.510570000000     0.0429779  
H260     H      0.354320000000     0.798290000000     0.990210000000     0.0431556  
H261     H      0.405860000000     0.797300000000     0.016160000000     0.0428601  
H262     H      0.377160000000     0.775550000000     0.037300000000     0.0396166  
H263     H      0.353200000000     0.697820000000     0.487970000000     0.0432674  
H264     H      0.378940000000     0.715270000000     0.035170000000     0.0392068  
H265     H      0.117290000000     0.782100000000     0.455020000000     0.0393644  
H266     H      0.119520000000     0.720450000000     0.457770000000     0.038999   
H267     H      0.158220000000     0.702280000000     0.994920000000     0.0446471  
H268     H      0.099710000000     0.802010000000     0.487050000000     0.0427967  
H269     H      0.158830000000     0.802000000000     0.487020000000     0.04313    
H270     H      0.141330000000     0.786730000000     0.021450000000     0.0382653  
H271     H      0.100820000000     0.701850000000     0.989940000000     0.0428646  
H272     H      0.139480000000     0.723220000000     0.025670000000     0.0409616  
H273     H      0.379680000000     0.966550000000     0.029340000000     0.0399061  
H274     H      0.377740000000     0.527710000000     0.033430000000     0.0399238  
H275     H      0.404630000000     0.549310000000     0.488710000000     0.0429656  
H276     H      0.351220000000     0.947560000000     0.005400000000     0.0430092  
H277     H      0.402870000000     0.949250000000     0.979960000000     0.0431877  
H278     H      0.374460000000     0.971470000000     0.458940000000     0.0399713  
H279     H      0.349730000000     0.547930000000     0.509960000000     0.0432237  
H280     H      0.376590000000     0.532330000000     0.462800000000     0.0394593  
H281     H      0.137220000000     0.960250000000     0.964010000000     0.0386901  
H282     H      0.135230000000     0.022600000000     0.462240000000     0.0401398  
H283     H      0.098760000000     0.543420000000     0.500610000000     0.0429852  
H284     H      0.156380000000     0.942970000000     0.996620000000     0.0431749  
H285     H      0.097410000000     0.943150000000     0.999750000000     0.0442403  
H286     H      0.116660000000     0.461600000000     0.031720000000     0.0398121  
H287     H      0.155630000000     0.543140000000     0.492230000000     0.0430085  
H288     H      0.119060000000     0.523730000000     0.531160000000     0.0391521  
H289     H      0.255700000000     0.707060000000     0.100230000000     0.0430561  
H290     H      0.223830000000     0.787920000000     0.083480000000     0.0393189  
H291     H      0.212370000000     0.749850000000     0.124920000000     0.0431753  
H292     H      0.293420000000     0.716870000000     0.084900000000     0.038522   
H293     H      0.292720000000     0.717440000000     0.142930000000     0.039176   
H294     H      0.302410000000     0.754760000000     0.127000000000     0.0425801  
H295     H      0.261260000000     0.796550000000     0.100280000000     0.042496   
H296     H      0.221750000000     0.787130000000     0.141120000000     0.0393527  
H297     H      0.256130000000     0.706110000000     0.369430000000     0.0420898  
H298     H      0.301590000000     0.750520000000     0.373200000000     0.0395052  
H299     H      0.289490000000     0.787930000000     0.334000000000     0.0409937  
H300     H      0.220980000000     0.714140000000     0.391120000000     0.0394378  
H301     H      0.214010000000     0.722210000000     0.334200000000     0.0397964  
H302     H      0.207590000000     0.757270000000     0.356210000000     0.0420036  
H303     H      0.291030000000     0.785470000000     0.393060000000     0.0411878  
H304     H      0.254660000000     0.800040000000     0.353550000000     0.03927    
H305     H      0.296590000000     0.503280000000     0.132890000000     0.0424134  
H306     H      0.249600000000     0.547010000000     0.136010000000     0.0394124  
H307     H      0.212900000000     0.531380000000     0.097350000000     0.0408075  
H308     H      0.290540000000     0.969250000000     0.156540000000     0.0399113  
H309     H      0.281350000000     0.958530000000     0.100610000000     0.0399122  
H310     H      0.246600000000     0.952590000000     0.123590000000     0.0415732  
H311     H      0.215370000000     0.535190000000     0.156670000000     0.0410053  
H312     H      0.202040000000     0.997320000000     0.118520000000     0.0380232  
H313     H      0.302050000000     0.997560000000     0.363690000000     0.0422334  
H314     H      0.221170000000     0.965800000000     0.348300000000     0.039413   
H315     H      0.261030000000     0.954060000000     0.388340000000     0.0424372  
H316     H      0.291980000000     0.535640000000     0.349950000000     0.039335   
H317     H      0.293140000000     0.532930000000     0.407920000000     0.0386581  
H318     H      0.255250000000     0.543360000000     0.393430000000     0.0433002  
H319     H      0.212050000000     0.002150000000     0.366590000000     0.0437986  
H320     H      0.223740000000     0.461740000000     0.405840000000     0.0395923  
H321     H      0.222590000000     0.874580000000     0.208500000000     0.0394773  
H322     H      0.284620000000     0.874730000000     0.208180000000     0.0392829  
H323     H      0.304770000000     0.905670000000     0.250990000000     0.0426453  
H324     H      0.203360000000     0.850430000000     0.236470000000     0.0431467  
H325     H      0.203850000000     0.906700000000     0.250840000000     0.0432437  
H326     H      0.222680000000     0.882260000000     0.278780000000     0.0394824  
H327     H      0.304300000000     0.850080000000     0.235440000000     0.0428988  
H328     H      0.285310000000     0.881270000000     0.278660000000     0.0395951  
H329     H      0.286880000000     0.623900000000     0.282270000000     0.0396236  
H330     H      0.224680000000     0.624240000000     0.282630000000     0.0395889  
H331     H      0.204550000000     0.655770000000     0.240250000000     0.0426717  
H332     H      0.305930000000     0.600260000000     0.253780000000     0.0431574  
H333     H      0.305420000000     0.656910000000     0.240640000000     0.0433054  
H334     H      0.286780000000     0.632970000000     0.212170000000     0.0395648  
H335     H      0.205020000000     0.599990000000     0.254990000000     0.0429045  
H336     H      0.224030000000     0.631770000000     0.212230000000     0.0398352  
H337     H      0.016450000000     0.800470000000     0.116190000000     0.0401044  
H338     H      0.048450000000     0.721890000000     0.101410000000     0.03789    
H339     H      0.054950000000     0.759550000000     0.144200000000     0.0422244  
H340     H      0.479390000000     0.793280000000     0.097940000000     0.0399827  
H341     H      0.475090000000     0.791930000000     0.155560000000     0.0382851  
H342     H      0.465060000000     0.755220000000     0.138540000000     0.0439541  
H343     H      0.010460000000     0.711050000000     0.115260000000     0.0437851  
H344     H      0.545480000000     0.721840000000     0.159360000000     0.0394479  
H345     H      0.526220000000     0.707060000000     0.350190000000     0.0381448  
H346     H      0.447610000000     0.739600000000     0.364780000000     0.0417082  
H347     H      0.455500000000     0.777030000000     0.407460000000     0.037472   
H348     H      0.037740000000     0.743480000000     0.366880000000     0.0441021  
H349     H      0.986540000000     0.699150000000     0.391220000000     0.0436318  
H350     H      0.024530000000     0.705620000000     0.407860000000     0.0401982  
H351     H      0.456090000000     0.777460000000     0.349320000000     0.0393355  
H352     H      0.992620000000     0.788600000000     0.392030000000     0.0450002  
H353     H      0.029960000000     0.034200000000     0.086030000000     0.0395111  
H354     H      0.498150000000     0.953170000000     0.101720000000     0.0433013  
H355     H      0.461820000000     0.962790000000     0.145140000000     0.0389672  
H356     H      0.992810000000     0.542620000000     0.103510000000     0.0446011  
H357     H      0.041770000000     0.495160000000     0.126630000000     0.0426254  
H358     H      0.033000000000     0.532240000000     0.143630000000     0.0385067  
H359     H      0.460230000000     0.963300000000     0.087090000000     0.0379401  
H360     H      0.451820000000     0.500350000000     0.130020000000     0.0430938  
H361     H      0.457810000000     0.001720000000     0.360690000000     0.0434786  
H362     H      0.503650000000     0.546620000000     0.356430000000     0.0392575  
H363     H      0.040280000000     0.532770000000     0.395700000000     0.0405299  
H364     H      0.464560000000     0.967490000000     0.337490000000     0.039691   
H365     H      0.474300000000     0.957690000000     0.393430000000     0.0396444  
H366     H      0.009190000000     0.952510000000     0.370450000000     0.039671   
H367     H      0.038180000000     0.535090000000     0.336090000000     0.0407296  
H368     H      0.052510000000     0.498740000000     0.375220000000     0.0387333  
H369     H      0.037280000000     0.880730000000     0.217840000000     0.0394736  
H370     H      0.974030000000     0.876770000000     0.217430000000     0.0407489  
H371     H      0.453920000000     0.847880000000     0.262490000000     0.042976   
H372     H      0.054090000000     0.904710000000     0.247380000000     0.0430239  
H373     H      0.054770000000     0.846650000000     0.258630000000     0.0427475  
H374     H      0.536570000000     0.870220000000     0.287780000000     0.0393186  
H375     H      0.453330000000     0.901560000000     0.243790000000     0.0431625  
H376     H      0.475080000000     0.873050000000     0.288070000000     0.0391657  
H377     H      0.462220000000     0.632700000000     0.277320000000     0.0395058  
H378     H      0.025940000000     0.628330000000     0.276890000000     0.0401008  
H379     H      0.045150000000     0.597650000000     0.232740000000     0.0431769  
H380     H      0.445340000000     0.655140000000     0.246710000000     0.0431577  
H381     H      0.444460000000     0.596360000000     0.238940000000     0.042743   
H382     H      0.461700000000     0.618380000000     0.208140000000     0.0391827  
H383     H      0.046020000000     0.651960000000     0.248990000000     0.0430666  
H384     H      0.023440000000     0.621640000000     0.206470000000     0.0389492  
H385     H      0.383180000000     0.779130000000     0.966880000000     0.040057   
H386     H      0.381700000000     0.717300000000     0.964460000000     0.0400466  
H387     H      0.407400000000     0.697020000000     0.010570000000     0.0429284  
H388     H      0.354320000000     0.798290000000     0.490210000000     0.0430853  
H389     H      0.405870000000     0.797300000000     0.516160000000     0.0428744  
H390     H      0.377160000000     0.775550000000     0.537300000000     0.0395732  
H391     H      0.353200000000     0.697820000000     0.987970000000     0.0433567  
H392     H      0.378940000000     0.715270000000     0.535170000000     0.0391739  
H393     H      0.117290000000     0.782100000000     0.955020000000     0.0394758  
H394     H      0.119520000000     0.720450000000     0.957770000000     0.0386379  
H395     H      0.158220000000     0.702290000000     0.494920000000     0.0430143  
H396     H      0.099710000000     0.802010000000     0.987050000000     0.0431975  
H397     H      0.158830000000     0.802000000000     0.987020000000     0.0430038  
H398     H      0.141330000000     0.786730000000     0.521450000000     0.0395658  
H399     H      0.100820000000     0.701850000000     0.489940000000     0.0429721  
H400     H      0.139480000000     0.723220000000     0.525670000000     0.0405897  
H401     H      0.379680000000     0.966550000000     0.529340000000     0.0398824  
H402     H      0.377740000000     0.527700000000     0.533430000000     0.0398899  
H403     H      0.404630000000     0.549310000000     0.988720000000     0.0430319  
H404     H      0.351220000000     0.947560000000     0.505400000000     0.0430666  
H405     H      0.402870000000     0.949250000000     0.479960000000     0.043166   
H406     H      0.374460000000     0.971470000000     0.958940000000     0.0399242  
H407     H      0.349730000000     0.547930000000     0.009960000000     0.043174   
H408     H      0.376590000000     0.532330000000     0.962800000000     0.0394056  
H409     H      0.137220000000     0.960250000000     0.464020000000     0.0390013  
H410     H      0.135230000000     0.022600000000     0.962240000000     0.0400225  
H411     H      0.098760000000     0.543420000000     0.000610000000     0.0426765  
H412     H      0.156380000000     0.942980000000     0.496620000000     0.0431414  
H413     H      0.097410000000     0.943150000000     0.499750000000     0.0427316  
H414     H      0.116660000000     0.461600000000     0.531720000000     0.0394648  
H415     H      0.155630000000     0.543140000000     0.992230000000     0.043077   
H416     H      0.119060000000     0.523720000000     0.031160000000     0.0391439  
H417     H      0.255700000000     0.707060000000     0.600230000000     0.0431932  
H418     H      0.223830000000     0.787920000000     0.583480000000     0.0394928  
H419     H      0.212370000000     0.749850000000     0.624910000000     0.0432347  
H420     H      0.293420000000     0.716870000000     0.584900000000     0.0386984  
H421     H      0.292720000000     0.717440000000     0.642930000000     0.0391709  
H422     H      0.302410000000     0.754760000000     0.627000000000     0.0426047  
H423     H      0.261260000000     0.796540000000     0.600280000000     0.0426063  
H424     H      0.221750000000     0.787130000000     0.641130000000     0.0393917  
H425     H      0.256130000000     0.706110000000     0.869430000000     0.0421265  
H426     H      0.301590000000     0.750520000000     0.873200000000     0.0395232  
H427     H      0.289490000000     0.787920000000     0.834000000000     0.0410148  
H428     H      0.220980000000     0.714140000000     0.891120000000     0.0394726  
H429     H      0.214010000000     0.722210000000     0.834200000000     0.0397988  
H430     H      0.207590000000     0.757280000000     0.856210000000     0.0419987  
H431     H      0.291030000000     0.785470000000     0.893060000000     0.041228   
H432     H      0.254660000000     0.800040000000     0.853550000000     0.0392924  
H433     H      0.296590000000     0.503280000000     0.632890000000     0.0424646  
H434     H      0.249600000000     0.547010000000     0.636010000000     0.0394444  
H435     H      0.212900000000     0.531380000000     0.597350000000     0.0409201  
H436     H      0.290540000000     0.969250000000     0.656540000000     0.0399658  
H437     H      0.281350000000     0.958530000000     0.600620000000     0.039938   
H438     H      0.246600000000     0.952590000000     0.623590000000     0.0416094  
H439     H      0.215370000000     0.535190000000     0.656680000000     0.0410278  
H440     H      0.202040000000     0.997320000000     0.618520000000     0.0380819  
H441     H      0.302060000000     0.997560000000     0.863690000000     0.0422404  
H442     H      0.221180000000     0.965800000000     0.848300000000     0.0394308  
H443     H      0.261030000000     0.954060000000     0.888340000000     0.0425074  
H444     H      0.291980000000     0.535630000000     0.849950000000     0.0393603  
H445     H      0.293140000000     0.532940000000     0.907920000000     0.0387987  
H446     H      0.255250000000     0.543360000000     0.893430000000     0.0433699  
H447     H      0.212050000000     0.002150000000     0.866590000000     0.043824   
H448     H      0.223740000000     0.461740000000     0.905840000000     0.0396603  
H449     H      0.222590000000     0.874580000000     0.708490000000     0.0394615  
H450     H      0.284620000000     0.874730000000     0.708180000000     0.039313   
H451     H      0.304770000000     0.905670000000     0.750990000000     0.0426446  
H452     H      0.203360000000     0.850430000000     0.736470000000     0.0431224  
H453     H      0.203860000000     0.906700000000     0.750840000000     0.0432786  
H454     H      0.222680000000     0.882260000000     0.778780000000     0.039503   
H455     H      0.304300000000     0.850080000000     0.735440000000     0.0429182  
H456     H      0.285310000000     0.881270000000     0.778660000000     0.0395967  
H457     H      0.286880000000     0.623900000000     0.782270000000     0.0396024  
H458     H      0.224680000000     0.624250000000     0.782630000000     0.039594   
H459     H      0.204550000000     0.655770000000     0.740250000000     0.0426774  
H460     H      0.305930000000     0.600260000000     0.753780000000     0.0431294  
H461     H      0.305420000000     0.656910000000     0.740640000000     0.0433069  
H462     H      0.286780000000     0.632970000000     0.712170000000     0.0395703  
H463     H      0.205020000000     0.599990000000     0.754990000000     0.0429024  
H464     H      0.224030000000     0.631770000000     0.712230000000     0.0398484  
H465     H      0.016450000000     0.800460000000     0.616190000000     0.0402004  
H466     H      0.048450000000     0.721890000000     0.601410000000     0.0380093  
H467     H      0.054950000000     0.759550000000     0.644200000000     0.0422781  
H468     H      0.479390000000     0.793280000000     0.597940000000     0.0400497  
H469     H      0.475090000000     0.791930000000     0.655560000000     0.0382618  
H470     H      0.465060000000     0.755230000000     0.638540000000     0.0439214  
H471     H      0.010460000000     0.711050000000     0.615260000000     0.0438243  
H472     H      0.545480000000     0.721830000000     0.659360000000     0.0394513  
H473     H      0.526220000000     0.707060000000     0.850200000000     0.0381554  
H474     H      0.447610000000     0.739600000000     0.864780000000     0.0417499  
H475     H      0.455500000000     0.777030000000     0.907460000000     0.0375838  
H476     H      0.037740000000     0.743480000000     0.866880000000     0.0441167  
H477     H      0.986540000000     0.699150000000     0.891220000000     0.0437062  
H478     H      0.024530000000     0.705620000000     0.907860000000     0.0402826  
H479     H      0.456090000000     0.777460000000     0.849320000000     0.0393576  
H480     H      0.992620000000     0.788600000000     0.892030000000     0.0450222  
H481     H      0.029960000000     0.034200000000     0.586030000000     0.0396429  
H482     H      0.498150000000     0.953170000000     0.601720000000     0.0433969  
H483     H      0.461810000000     0.962790000000     0.645140000000     0.0389859  
H484     H      0.992810000000     0.542620000000     0.603510000000     0.0446703  
H485     H      0.041770000000     0.495160000000     0.626630000000     0.0426991  
H486     H      0.033000000000     0.532240000000     0.643630000000     0.0385562  
H487     H      0.460230000000     0.963300000000     0.587090000000     0.0380717  
H488     H      0.451820000000     0.500350000000     0.630020000000     0.0431198  
H489     H      0.457810000000     0.001720000000     0.860690000000     0.0435011  
H490     H      0.503650000000     0.546620000000     0.856430000000     0.0392769  
H491     H      0.040280000000     0.532770000000     0.895700000000     0.0405899  
H492     H      0.464560000000     0.967490000000     0.837490000000     0.039702   
H493     H      0.474300000000     0.957690000000     0.893430000000     0.0396752  
H494     H      0.009190000000     0.952510000000     0.870450000000     0.0397037  
H495     H      0.038180000000     0.535090000000     0.836100000000     0.0407354  
H496     H      0.052510000000     0.498740000000     0.875220000000     0.0387561  
H497     H      0.037280000000     0.880730000000     0.717840000000     0.0394834  
H498     H      0.974030000000     0.876770000000     0.717430000000     0.0407618  
H499     H      0.453920000000     0.847890000000     0.762490000000     0.0429848  
H500     H      0.054090000000     0.904710000000     0.747380000000     0.043031   
H501     H      0.054770000000     0.846650000000     0.758630000000     0.0427502  
H502     H      0.536570000000     0.870220000000     0.787780000000     0.0393034  
H503     H      0.453330000000     0.901560000000     0.743790000000     0.0431545  
H504     H      0.475080000000     0.873050000000     0.788070000000     0.0391821  
H505     H      0.462220000000     0.632700000000     0.777330000000     0.0394753  
H506     H      0.025940000000     0.628320000000     0.776890000000     0.0400992  
H507     H      0.045150000000     0.597650000000     0.732740000000     0.0431835  
H508     H      0.445330000000     0.655140000000     0.746710000000     0.0431197  
H509     H      0.444460000000     0.596360000000     0.738940000000     0.0427899  
H510     H      0.461700000000     0.618380000000     0.708140000000     0.0392389  
H511     H      0.046020000000     0.651960000000     0.748990000000     0.0430679  
H512     H      0.023440000000     0.621640000000     0.706470000000     0.0389719  
H513     H      0.883190000000     0.279130000000     0.466880000000     0.0401222  
H514     H      0.881700000000     0.217300000000     0.464460000000     0.0401269  
H515     H      0.907400000000     0.197020000000     0.510570000000     0.0431668  
H516     H      0.854320000000     0.298290000000     0.990210000000     0.0431748  
H517     H      0.905870000000     0.297290000000     0.016160000000     0.0430243  
H518     H      0.877160000000     0.275550000000     0.037300000000     0.0396922  
H519     H      0.853200000000     0.197820000000     0.487970000000     0.0433116  
H520     H      0.878940000000     0.215270000000     0.035170000000     0.0392998  
H521     H      0.617290000000     0.282100000000     0.455020000000     0.0394654  
H522     H      0.619520000000     0.220450000000     0.457770000000     0.0390704  
H523     H      0.658220000000     0.202280000000     0.994920000000     0.0446581  
H524     H      0.599710000000     0.302010000000     0.487050000000     0.0429254  
H525     H      0.658830000000     0.302000000000     0.487020000000     0.0431586  
H526     H      0.641330000000     0.286730000000     0.021450000000     0.0383014  
H527     H      0.600820000000     0.201850000000     0.989940000000     0.0429332  
H528     H      0.639480000000     0.223220000000     0.025670000000     0.040974   
H529     H      0.879690000000     0.466550000000     0.029340000000     0.0400391  
H530     H      0.877740000000     0.027700000000     0.033430000000     0.0401202  
H531     H      0.904630000000     0.049310000000     0.488710000000     0.0430986  
H532     H      0.851220000000     0.447560000000     0.005400000000     0.0430204  
H533     H      0.902870000000     0.449250000000     0.979960000000     0.0432859  
H534     H      0.874460000000     0.471470000000     0.458940000000     0.0401296  
H535     H      0.849730000000     0.047930000000     0.509960000000     0.0432385  
H536     H      0.876580000000     0.032330000000     0.462800000000     0.039643   
H537     H      0.637220000000     0.460250000000     0.964010000000     0.0388209  
H538     H      0.635230000000     0.522600000000     0.462240000000     0.0400083  
H539     H      0.598760000000     0.043420000000     0.500610000000     0.0430278  
H540     H      0.656380000000     0.442980000000     0.996620000000     0.0432084  
H541     H      0.597410000000     0.443150000000     0.999750000000     0.0444331  
H542     H      0.616660000000     0.961600000000     0.031720000000     0.0397937  
H543     H      0.655630000000     0.043140000000     0.492230000000     0.0429949  
H544     H      0.619060000000     0.023730000000     0.531160000000     0.0393655  
H545     H      0.755700000000     0.207060000000     0.100230000000     0.0430634  
H546     H      0.723830000000     0.287920000000     0.083480000000     0.0393408  
H547     H      0.712370000000     0.249850000000     0.124920000000     0.0431783  
H548     H      0.793420000000     0.216870000000     0.084900000000     0.038536   
H549     H      0.792720000000     0.217440000000     0.142930000000     0.0391939  
H550     H      0.802410000000     0.254760000000     0.127000000000     0.0425979  
H551     H      0.761260000000     0.296540000000     0.100280000000     0.0425199  
H552     H      0.721750000000     0.287130000000     0.141120000000     0.0393592  
H553     H      0.756130000000     0.206110000000     0.369430000000     0.0420781  
H554     H      0.801590000000     0.250520000000     0.373200000000     0.0395087  
H555     H      0.789490000000     0.287920000000     0.334000000000     0.0410187  
H556     H      0.720980000000     0.214140000000     0.391120000000     0.0394273  
H557     H      0.714010000000     0.222210000000     0.334200000000     0.0398076  
H558     H      0.707590000000     0.257270000000     0.356210000000     0.0420262  
H559     H      0.791030000000     0.285470000000     0.393060000000     0.0411853  
H560     H      0.754670000000     0.300040000000     0.353550000000     0.0392904  
H561     H      0.796590000000     0.003280000000     0.132890000000     0.0433364  
H562     H      0.749600000000     0.047010000000     0.136010000000     0.0395465  
H563     H      0.712900000000     0.031380000000     0.097350000000     0.0406157  
H564     H      0.790540000000     0.469250000000     0.156540000000     0.0398159  
H565     H      0.781350000000     0.458530000000     0.100610000000     0.0400737  
H566     H      0.746600000000     0.452590000000     0.123590000000     0.041748   
H567     H      0.715370000000     0.035190000000     0.156670000000     0.0412062  
H568     H      0.702040000000     0.497320000000     0.118520000000     0.0388885  
H569     H      0.802050000000     0.497560000000     0.363690000000     0.0429856  
H570     H      0.721170000000     0.465800000000     0.348300000000     0.0392452  
H571     H      0.761030000000     0.454060000000     0.388340000000     0.0425781  
H572     H      0.791980000000     0.035640000000     0.349950000000     0.0392239  
H573     H      0.793140000000     0.032930000000     0.407920000000     0.0388071  
H574     H      0.755250000000     0.043360000000     0.393430000000     0.043318   
H575     H      0.712050000000     0.502150000000     0.366590000000     0.0429251  
H576     H      0.723740000000     0.961740000000     0.405840000000     0.0394356  
H577     H      0.722590000000     0.374580000000     0.208500000000     0.0395025  
H578     H      0.784620000000     0.374730000000     0.208180000000     0.0393309  
H579     H      0.804770000000     0.405670000000     0.250990000000     0.0427073  
H580     H      0.703360000000     0.350430000000     0.236470000000     0.0431587  
H581     H      0.703850000000     0.406700000000     0.250840000000     0.0433318  
H582     H      0.722680000000     0.382260000000     0.278780000000     0.0395234  
H583     H      0.804300000000     0.350080000000     0.235440000000     0.0429291  
H584     H      0.785310000000     0.381270000000     0.278660000000     0.0396198  
H585     H      0.786880000000     0.123900000000     0.282270000000     0.0396448  
H586     H      0.724680000000     0.124250000000     0.282630000000     0.0396128  
H587     H      0.704550000000     0.155770000000     0.240250000000     0.0426392  
H588     H      0.805930000000     0.100260000000     0.253780000000     0.0432013  
H589     H      0.805420000000     0.156910000000     0.240640000000     0.0433268  
H590     H      0.786780000000     0.132970000000     0.212170000000     0.0395824  
H591     H      0.705020000000     0.099990000000     0.254990000000     0.0429468  
H592     H      0.724030000000     0.131770000000     0.212230000000     0.0398064  
H593     H      0.516440000000     0.300470000000     0.116190000000     0.0420667  
H594     H      0.548440000000     0.221890000000     0.101410000000     0.0379521  
H595     H      0.554950000000     0.259550000000     0.144200000000     0.0422535  
H596     H      0.979390000000     0.293280000000     0.097940000000     0.0397573  
H597     H      0.975090000000     0.291930000000     0.155560000000     0.0386308  
H598     H      0.965060000000     0.255220000000     0.138540000000     0.0442299  
H599     H      0.510460000000     0.211050000000     0.115260000000     0.0442844  
H600     H      0.045480000000     0.221830000000     0.159360000000     0.0393815  
H601     H      0.026220000000     0.207060000000     0.350190000000     0.0377816  
H602     H      0.947610000000     0.239600000000     0.364780000000     0.0417582  
H603     H      0.955500000000     0.277040000000     0.407460000000     0.0375949  
H604     H      0.537740000000     0.243480000000     0.366880000000     0.0443873  
H605     H      0.486540000000     0.199150000000     0.391220000000     0.0416227  
H606     H      0.524530000000     0.205620000000     0.407860000000     0.0399073  
H607     H      0.956090000000     0.277460000000     0.349320000000     0.0394002  
H608     H      0.492630000000     0.288600000000     0.392030000000     0.0444268  
H609     H      0.529960000000     0.534200000000     0.086030000000     0.0390764  
H610     H      0.998150000000     0.453170000000     0.101720000000     0.0439278  
H611     H      0.961820000000     0.462790000000     0.145140000000     0.0389218  
H612     H      0.492810000000     0.042620000000     0.103510000000     0.0426345  
H613     H      0.541770000000     0.995160000000     0.126630000000     0.04215    
H614     H      0.533000000000     0.032240000000     0.143630000000     0.0386842  
H615     H      0.960230000000     0.463300000000     0.087090000000     0.0381259  
H616     H      0.951820000000     0.000350000000     0.130020000000     0.0439598  
H617     H      0.957810000000     0.501720000000     0.360690000000     0.0430585  
H618     H      0.003650000000     0.046620000000     0.356430000000     0.039035   
H619     H      0.540280000000     0.032770000000     0.395700000000     0.0404682  
H620     H      0.964560000000     0.467490000000     0.337490000000     0.0399048  
H621     H      0.974310000000     0.457690000000     0.393430000000     0.0394733  
H622     H      0.509190000000     0.452510000000     0.370450000000     0.0419727  
H623     H      0.538180000000     0.035090000000     0.336090000000     0.0408508  
H624     H      0.552510000000     0.998740000000     0.375220000000     0.0380339  
H625     H      0.537290000000     0.380730000000     0.217840000000     0.0397635  
H626     H      0.474040000000     0.376770000000     0.217430000000     0.0404718  
H627     H      0.953920000000     0.347890000000     0.262490000000     0.0429087  
H628     H      0.554090000000     0.404720000000     0.247380000000     0.0431015  
H629     H      0.554770000000     0.346650000000     0.258630000000     0.042783   
H630     H      0.036570000000     0.370220000000     0.287780000000     0.0390233  
H631     H      0.953330000000     0.401560000000     0.243790000000     0.0430865  
H632     H      0.975080000000     0.373050000000     0.288070000000     0.0395311  
H633     H      0.962220000000     0.132700000000     0.277320000000     0.0398012  
H634     H      0.525940000000     0.128320000000     0.276890000000     0.0403908  
H635     H      0.545160000000     0.097650000000     0.232740000000     0.0431031  
H636     H      0.945330000000     0.155140000000     0.246710000000     0.0431609  
H637     H      0.944460000000     0.096360000000     0.238940000000     0.0428243  
H638     H      0.961700000000     0.118380000000     0.208140000000     0.0395308  
H639     H      0.546020000000     0.151960000000     0.248990000000     0.0429777  
H640     H      0.523440000000     0.121630000000     0.206470000000     0.0392821  
H641     H      0.883190000000     0.279130000000     0.966880000000     0.0400922  
H642     H      0.881700000000     0.217300000000     0.964460000000     0.0401067  
H643     H      0.907400000000     0.197020000000     0.010570000000     0.0431043  
H644     H      0.854320000000     0.298290000000     0.490210000000     0.0431063  
H645     H      0.905860000000     0.297300000000     0.516160000000     0.0430141  
H646     H      0.877160000000     0.275550000000     0.537300000000     0.039647   
H647     H      0.853200000000     0.197820000000     0.987970000000     0.043397   
H648     H      0.878940000000     0.215270000000     0.535170000000     0.0392706  
H649     H      0.617290000000     0.282100000000     0.955020000000     0.0395355  
H650     H      0.619520000000     0.220450000000     0.957770000000     0.0386979  
H651     H      0.658220000000     0.202280000000     0.494920000000     0.0430071  
H652     H      0.599710000000     0.302010000000     0.987050000000     0.0432779  
H653     H      0.658830000000     0.302000000000     0.987020000000     0.0430424  
H654     H      0.641330000000     0.286730000000     0.521450000000     0.0395867  
H655     H      0.600820000000     0.201850000000     0.489940000000     0.0430581  
H656     H      0.639480000000     0.223220000000     0.525670000000     0.0405872  
H657     H      0.879680000000     0.466550000000     0.529340000000     0.040021   
H658     H      0.877740000000     0.027700000000     0.533430000000     0.0400883  
H659     H      0.904630000000     0.049310000000     0.988720000000     0.0431879  
H660     H      0.851220000000     0.447560000000     0.505400000000     0.0430871  
H661     H      0.902870000000     0.449250000000     0.479960000000     0.0432425  
H662     H      0.874460000000     0.471470000000     0.958940000000     0.0401005  
H663     H      0.849730000000     0.047930000000     0.009960000000     0.0431779  
H664     H      0.876590000000     0.032330000000     0.962800000000     0.0396143  
H665     H      0.637220000000     0.460250000000     0.464020000000     0.039132   
H666     H      0.635230000000     0.522600000000     0.962240000000     0.0398926  
H667     H      0.598760000000     0.043420000000     0.000610000000     0.0427135  
H668     H      0.656380000000     0.442980000000     0.496620000000     0.0431648  
H669     H      0.597410000000     0.443150000000     0.499750000000     0.0428885  
H670     H      0.616660000000     0.961600000000     0.531720000000     0.0394802  
H671     H      0.655630000000     0.043140000000     0.992230000000     0.0430633  
H672     H      0.619070000000     0.023730000000     0.031160000000     0.0393413  
H673     H      0.755700000000     0.207060000000     0.600230000000     0.0431567  
H674     H      0.723830000000     0.287920000000     0.583480000000     0.0394972  
H675     H      0.712370000000     0.249850000000     0.624910000000     0.043233   
H676     H      0.793420000000     0.216870000000     0.584900000000     0.0386888  
H677     H      0.792720000000     0.217440000000     0.642930000000     0.0392163  
H678     H      0.802410000000     0.254760000000     0.627000000000     0.0426492  
H679     H      0.761260000000     0.296540000000     0.600280000000     0.0426192  
H680     H      0.721750000000     0.287130000000     0.641130000000     0.0393975  
H681     H      0.756130000000     0.206110000000     0.869430000000     0.0421308  
H682     H      0.801590000000     0.250520000000     0.873200000000     0.0395358  
H683     H      0.789490000000     0.287930000000     0.834000000000     0.0410111  
H684     H      0.720980000000     0.214140000000     0.891120000000     0.0394787  
H685     H      0.714010000000     0.222210000000     0.834200000000     0.0398076  
H686     H      0.707590000000     0.257280000000     0.856210000000     0.0420146  
H687     H      0.791030000000     0.285470000000     0.893060000000     0.0412376  
H688     H      0.754660000000     0.300040000000     0.853550000000     0.0392956  
H689     H      0.796590000000     0.003280000000     0.632890000000     0.043371   
H690     H      0.749600000000     0.047010000000     0.636010000000     0.039579   
H691     H      0.712900000000     0.031380000000     0.597350000000     0.0407378  
H692     H      0.790540000000     0.469250000000     0.656540000000     0.0398401  
H693     H      0.781350000000     0.458530000000     0.600620000000     0.040104   
H694     H      0.746600000000     0.452590000000     0.623590000000     0.0417847  
H695     H      0.715370000000     0.035190000000     0.656680000000     0.0412255  
H696     H      0.702040000000     0.497320000000     0.618520000000     0.0389634  
H697     H      0.802050000000     0.497560000000     0.863690000000     0.0430201  
H698     H      0.721180000000     0.465800000000     0.848300000000     0.0392622  
H699     H      0.761030000000     0.454060000000     0.888340000000     0.0426367  
H700     H      0.791980000000     0.035640000000     0.849950000000     0.0392362  
H701     H      0.793140000000     0.032930000000     0.907920000000     0.0389442  
H702     H      0.755250000000     0.043360000000     0.893430000000     0.043382   
H703     H      0.712050000000     0.502150000000     0.866590000000     0.042948   
H704     H      0.723740000000     0.961740000000     0.905840000000     0.0395132  
H705     H      0.722590000000     0.374580000000     0.708490000000     0.0395036  
H706     H      0.784620000000     0.374730000000     0.708180000000     0.0393556  
H707     H      0.804770000000     0.405670000000     0.750990000000     0.0427068  
H708     H      0.703360000000     0.350440000000     0.736470000000     0.0431488  
H709     H      0.703860000000     0.406700000000     0.750840000000     0.0433564  
H710     H      0.722680000000     0.382260000000     0.778780000000     0.0395362  
H711     H      0.804300000000     0.350080000000     0.735440000000     0.04294    
H712     H      0.785310000000     0.381270000000     0.778660000000     0.0396222  
H713     H      0.786880000000     0.123900000000     0.782270000000     0.0396403  
H714     H      0.724680000000     0.124250000000     0.782630000000     0.0395936  
H715     H      0.704550000000     0.155770000000     0.740250000000     0.0426857  
H716     H      0.805930000000     0.100260000000     0.753780000000     0.0431954  
H717     H      0.805420000000     0.156910000000     0.740640000000     0.0433233  
H718     H      0.786780000000     0.132970000000     0.712170000000     0.0395856  
H719     H      0.705020000000     0.099990000000     0.754990000000     0.0429254  
H720     H      0.724030000000     0.131770000000     0.712230000000     0.0398621  
H721     H      0.516450000000     0.300460000000     0.616190000000     0.0421577  
H722     H      0.548450000000     0.221890000000     0.601410000000     0.0380696  
H723     H      0.554950000000     0.259550000000     0.644200000000     0.0422894  
H724     H      0.979390000000     0.293280000000     0.597940000000     0.0398052  
H725     H      0.975090000000     0.291930000000     0.655560000000     0.038683   
H726     H      0.965060000000     0.255230000000     0.638540000000     0.044281   
H727     H      0.510460000000     0.211050000000     0.615260000000     0.0443388  
H728     H      0.045480000000     0.221830000000     0.659360000000     0.0394094  
H729     H      0.026220000000     0.207060000000     0.850200000000     0.0377953  
H730     H      0.947610000000     0.239610000000     0.864780000000     0.0417969  
H731     H      0.955500000000     0.277030000000     0.907460000000     0.0377305  
H732     H      0.537740000000     0.243480000000     0.866880000000     0.0443979  
H733     H      0.486540000000     0.199150000000     0.891220000000     0.041711   
H734     H      0.524530000000     0.205620000000     0.907860000000     0.0399842  
H735     H      0.956090000000     0.277460000000     0.849320000000     0.0394182  
H736     H      0.492620000000     0.288600000000     0.892030000000     0.0444933  
H737     H      0.529960000000     0.534200000000     0.586030000000     0.0392113  
H738     H      0.998150000000     0.453170000000     0.601720000000     0.0440601  
H739     H      0.961820000000     0.462790000000     0.645140000000     0.0389274  
H740     H      0.492810000000     0.042620000000     0.603510000000     0.0427185  
H741     H      0.541770000000     0.995160000000     0.626630000000     0.042197   
H742     H      0.533010000000     0.032240000000     0.643630000000     0.0387086  
H743     H      0.960230000000     0.463300000000     0.587090000000     0.0382968  
H744     H      0.951820000000     0.000350000000     0.630020000000     0.0440006  
H745     H      0.957810000000     0.501720000000     0.860690000000     0.0430683  
H746     H      0.003650000000     0.046620000000     0.856430000000     0.0390679  
H747     H      0.540280000000     0.032770000000     0.895700000000     0.0405589  
H748     H      0.964560000000     0.467490000000     0.837490000000     0.0399069  
H749     H      0.974300000000     0.457690000000     0.893430000000     0.0394931  
H750     H      0.509190000000     0.452510000000     0.870450000000     0.0419962  
H751     H      0.538180000000     0.035090000000     0.836100000000     0.0408522  
H752     H      0.552510000000     0.998740000000     0.875220000000     0.0380859  
H753     H      0.537290000000     0.380730000000     0.717840000000     0.0397787  
H754     H      0.474040000000     0.376770000000     0.717430000000     0.0404767  
H755     H      0.953920000000     0.347880000000     0.762490000000     0.0429151  
H756     H      0.554090000000     0.404710000000     0.747380000000     0.043103   
H757     H      0.554770000000     0.346650000000     0.758630000000     0.0427739  
H758     H      0.036570000000     0.370220000000     0.787780000000     0.0390331  
H759     H      0.953330000000     0.401560000000     0.743790000000     0.0430846  
H760     H      0.975080000000     0.373050000000     0.788070000000     0.0395332  
H761     H      0.962220000000     0.132700000000     0.777330000000     0.0397899  
H762     H      0.525940000000     0.128320000000     0.776890000000     0.0403912  
H763     H      0.545150000000     0.097650000000     0.732740000000     0.0431355  
H764     H      0.945330000000     0.155140000000     0.746710000000     0.0431569  
H765     H      0.944460000000     0.096360000000     0.738940000000     0.0428331  
H766     H      0.961700000000     0.118380000000     0.708140000000     0.0395473  
H767     H      0.546020000000     0.151960000000     0.748990000000     0.0429778  
H768     H      0.523440000000     0.121630000000     0.706470000000     0.0393145  
H769     H      0.883190000000     0.779130000000     0.466880000000     0.0401218  
H770     H      0.881700000000     0.717300000000     0.464460000000     0.0401245  
H771     H      0.907400000000     0.697020000000     0.510570000000     0.0431613  
H772     H      0.854320000000     0.798290000000     0.990210000000     0.0431767  
H773     H      0.905870000000     0.797300000000     0.016160000000     0.0430021  
H774     H      0.877160000000     0.775550000000     0.037300000000     0.0396824  
H775     H      0.853200000000     0.697820000000     0.487970000000     0.0433072  
H776     H      0.878940000000     0.715270000000     0.035170000000     0.0392987  
H777     H      0.617290000000     0.782100000000     0.455020000000     0.0394638  
H778     H      0.619520000000     0.720450000000     0.457770000000     0.0390654  
H779     H      0.658220000000     0.702280000000     0.994920000000     0.0446483  
H780     H      0.599710000000     0.802010000000     0.487050000000     0.0429229  
H781     H      0.658830000000     0.802000000000     0.487020000000     0.0431566  
H782     H      0.641330000000     0.786730000000     0.021450000000     0.0382987  
H783     H      0.600820000000     0.701850000000     0.989940000000     0.0429384  
H784     H      0.639480000000     0.723220000000     0.025670000000     0.0409703  
H785     H      0.879690000000     0.966550000000     0.029340000000     0.0399331  
H786     H      0.877740000000     0.527710000000     0.033430000000     0.0399714  
H787     H      0.904630000000     0.549310000000     0.488710000000     0.0431375  
H788     H      0.851220000000     0.947560000000     0.005400000000     0.0430258  
H789     H      0.902870000000     0.949250000000     0.979960000000     0.0432886  
H790     H      0.874460000000     0.971470000000     0.458940000000     0.0400225  
H791     H      0.849730000000     0.547930000000     0.509960000000     0.0432618  
H792     H      0.876580000000     0.532330000000     0.462800000000     0.039538   
H793     H      0.637220000000     0.960250000000     0.964010000000     0.0387249  
H794     H      0.635230000000     0.022600000000     0.462240000000     0.0401564  
H795     H      0.598760000000     0.543420000000     0.500610000000     0.0430576  
H796     H      0.656380000000     0.942970000000     0.996620000000     0.043203   
H797     H      0.597410000000     0.943150000000     0.999750000000     0.0443907  
H798     H      0.616660000000     0.461600000000     0.031720000000     0.039927   
H799     H      0.655630000000     0.543140000000     0.492230000000     0.0430216  
H800     H      0.619060000000     0.523730000000     0.531160000000     0.0392208  
H801     H      0.755700000000     0.707060000000     0.100230000000     0.0430619  
H802     H      0.723830000000     0.787920000000     0.083480000000     0.0393296  
H803     H      0.712370000000     0.749850000000     0.124920000000     0.0431812  
H804     H      0.793420000000     0.716870000000     0.084900000000     0.0385356  
H805     H      0.792720000000     0.717440000000     0.142930000000     0.0391925  
H806     H      0.802410000000     0.754760000000     0.127000000000     0.0425987  
H807     H      0.761260000000     0.796550000000     0.100280000000     0.0424962  
H808     H      0.721750000000     0.787130000000     0.141120000000     0.0393581  
H809     H      0.756130000000     0.706110000000     0.369430000000     0.0420752  
H810     H      0.801590000000     0.750520000000     0.373200000000     0.0395112  
H811     H      0.789490000000     0.787930000000     0.334000000000     0.0410006  
H812     H      0.720980000000     0.714140000000     0.391120000000     0.0394249  
H813     H      0.714010000000     0.722210000000     0.334200000000     0.0398063  
H814     H      0.707590000000     0.757270000000     0.356210000000     0.0420246  
H815     H      0.791030000000     0.785470000000     0.393060000000     0.0411846  
H816     H      0.754670000000     0.800040000000     0.353550000000     0.0392774  
H817     H      0.796590000000     0.503280000000     0.132890000000     0.0424514  
H818     H      0.749600000000     0.547010000000     0.136010000000     0.0394187  
H819     H      0.712900000000     0.531380000000     0.097350000000     0.0408067  
H820     H      0.790540000000     0.969250000000     0.156540000000     0.0399489  
H821     H      0.781350000000     0.958530000000     0.100610000000     0.0399124  
H822     H      0.746600000000     0.952590000000     0.123590000000     0.041581   
H823     H      0.715370000000     0.535190000000     0.156670000000     0.041019   
H824     H      0.702040000000     0.997320000000     0.118520000000     0.0380285  
H825     H      0.802050000000     0.997560000000     0.363690000000     0.0422468  
H826     H      0.721170000000     0.965800000000     0.348300000000     0.0394224  
H827     H      0.761030000000     0.954060000000     0.388340000000     0.04244    
H828     H      0.791980000000     0.535640000000     0.349950000000     0.0393508  
H829     H      0.793140000000     0.532930000000     0.407920000000     0.0386755  
H830     H      0.755250000000     0.543360000000     0.393430000000     0.0433015  
H831     H      0.712050000000     0.002150000000     0.366590000000     0.0438116  
H832     H      0.723740000000     0.461740000000     0.405840000000     0.0395981  
H833     H      0.722590000000     0.874580000000     0.208500000000     0.0394686  
H834     H      0.784620000000     0.874730000000     0.208180000000     0.0393001  
H835     H      0.804770000000     0.905670000000     0.250990000000     0.0426458  
H836     H      0.703360000000     0.850430000000     0.236470000000     0.0431436  
H837     H      0.703850000000     0.906700000000     0.250840000000     0.043262   
H838     H      0.722680000000     0.882260000000     0.278780000000     0.0394934  
H839     H      0.804300000000     0.850080000000     0.235440000000     0.0429182  
H840     H      0.785310000000     0.881270000000     0.278660000000     0.039592   
H841     H      0.786880000000     0.623900000000     0.282270000000     0.0396323  
H842     H      0.724680000000     0.624240000000     0.282630000000     0.0395999  
H843     H      0.704550000000     0.655770000000     0.240250000000     0.0426354  
H844     H      0.805930000000     0.600260000000     0.253780000000     0.0431725  
H845     H      0.805420000000     0.656910000000     0.240640000000     0.0433186  
H846     H      0.786780000000     0.632970000000     0.212170000000     0.0395714  
H847     H      0.705020000000     0.599990000000     0.254990000000     0.0429223  
H848     H      0.724030000000     0.631770000000     0.212230000000     0.0398007  
H849     H      0.516440000000     0.800470000000     0.116190000000     0.0420632  
H850     H      0.548440000000     0.721890000000     0.101410000000     0.0379515  
H851     H      0.554950000000     0.759550000000     0.144200000000     0.0422592  
H852     H      0.979390000000     0.793280000000     0.097940000000     0.0397575  
H853     H      0.975090000000     0.791930000000     0.155560000000     0.0386272  
H854     H      0.965060000000     0.755220000000     0.138540000000     0.0442301  
H855     H      0.510460000000     0.711050000000     0.115260000000     0.0442823  
H856     H      0.045480000000     0.721840000000     0.159360000000     0.0393975  
H857     H      0.026220000000     0.707060000000     0.350190000000     0.03778    
H858     H      0.947610000000     0.739600000000     0.364780000000     0.0417553  
H859     H      0.955500000000     0.777030000000     0.407460000000     0.0375992  
H860     H      0.537740000000     0.743480000000     0.366880000000     0.0443875  
H861     H      0.486540000000     0.699150000000     0.391220000000     0.0416128  
H862     H      0.524530000000     0.705620000000     0.407860000000     0.0398983  
H863     H      0.956090000000     0.777460000000     0.349320000000     0.0393974  
H864     H      0.492630000000     0.788600000000     0.392030000000     0.044427   
H865     H      0.529960000000     0.034200000000     0.086030000000     0.0392018  
H866     H      0.998150000000     0.953170000000     0.101720000000     0.0438972  
H867     H      0.961820000000     0.962790000000     0.145140000000     0.0390648  
H868     H      0.492810000000     0.542620000000     0.103510000000     0.0425632  
H869     H      0.541770000000     0.495160000000     0.126630000000     0.0429413  
H870     H      0.533000000000     0.532240000000     0.143630000000     0.0388469  
H871     H      0.960230000000     0.963300000000     0.087090000000     0.0380313  
H872     H      0.951820000000     0.500350000000     0.130020000000     0.0431336  
H873     H      0.957810000000     0.001720000000     0.360690000000     0.0439836  
H874     H      0.003650000000     0.546620000000     0.356430000000     0.0389007  
H875     H      0.540280000000     0.532770000000     0.395700000000     0.0406609  
H876     H      0.964560000000     0.967490000000     0.337490000000     0.0401067  
H877     H      0.974310000000     0.957690000000     0.393430000000     0.0393223  
H878     H      0.509190000000     0.952510000000     0.370450000000     0.0418085  
H879     H      0.538180000000     0.535090000000     0.336090000000     0.0406734  
H880     H      0.552510000000     0.498740000000     0.375220000000     0.0389031  
H881     H      0.537290000000     0.880730000000     0.217840000000     0.0397383  
H882     H      0.474040000000     0.876770000000     0.217430000000     0.0404603  
H883     H      0.953920000000     0.847880000000     0.262490000000     0.0429025  
H884     H      0.554090000000     0.904710000000     0.247380000000     0.0430278  
H885     H      0.554770000000     0.846650000000     0.258630000000     0.0427678  
H886     H      0.036570000000     0.870220000000     0.287780000000     0.0389956  
H887     H      0.953330000000     0.901560000000     0.243790000000     0.0430589  
H888     H      0.975080000000     0.873050000000     0.288070000000     0.0395061  
H889     H      0.962220000000     0.632700000000     0.277320000000     0.0397803  
H890     H      0.525940000000     0.628330000000     0.276890000000     0.0403873  
H891     H      0.545160000000     0.597650000000     0.232740000000     0.0430673  
H892     H      0.945330000000     0.655140000000     0.246710000000     0.0431521  
H893     H      0.944460000000     0.596360000000     0.238940000000     0.0427524  
H894     H      0.961700000000     0.618380000000     0.208140000000     0.0394952  
H895     H      0.546020000000     0.651960000000     0.248990000000     0.0429761  
H896     H      0.523440000000     0.621640000000     0.206470000000     0.0392549  
H897     H      0.883190000000     0.779130000000     0.966880000000     0.0400964  
H898     H      0.881700000000     0.717300000000     0.964460000000     0.0401069  
H899     H      0.907400000000     0.697020000000     0.010570000000     0.0431051  
H900     H      0.854320000000     0.798290000000     0.490210000000     0.043105   
H901     H      0.905860000000     0.797300000000     0.516160000000     0.0430127  
H902     H      0.877160000000     0.775550000000     0.537300000000     0.0396468  
H903     H      0.853200000000     0.697820000000     0.987970000000     0.0433947  
H904     H      0.878940000000     0.715270000000     0.535170000000     0.0392679  
H905     H      0.617290000000     0.782100000000     0.955020000000     0.039569   
H906     H      0.619520000000     0.720450000000     0.957770000000     0.038703   
H907     H      0.658220000000     0.702290000000     0.494920000000     0.0430261  
H908     H      0.599710000000     0.802010000000     0.987050000000     0.043313   
H909     H      0.658830000000     0.802000000000     0.987020000000     0.0430309  
H910     H      0.641330000000     0.786730000000     0.521450000000     0.039586   
H911     H      0.600820000000     0.701850000000     0.489940000000     0.0430515  
H912     H      0.639480000000     0.723220000000     0.525670000000     0.0405965  
H913     H      0.879680000000     0.966550000000     0.529340000000     0.0399094  
H914     H      0.877740000000     0.527700000000     0.533430000000     0.039942   
H915     H      0.904630000000     0.549310000000     0.988720000000     0.0432165  
H916     H      0.851220000000     0.947560000000     0.505400000000     0.0430874  
H917     H      0.902870000000     0.949250000000     0.479960000000     0.043258   
H918     H      0.874460000000     0.971470000000     0.958940000000     0.0399774  
H919     H      0.849730000000     0.547930000000     0.009960000000     0.0432027  
H920     H      0.876590000000     0.532330000000     0.962800000000     0.0394969  
H921     H      0.637220000000     0.960250000000     0.464020000000     0.0390351  
H922     H      0.635230000000     0.022600000000     0.962240000000     0.0400404  
H923     H      0.598760000000     0.543420000000     0.000610000000     0.0427495  
H924     H      0.656380000000     0.942980000000     0.496620000000     0.0431704  
H925     H      0.597410000000     0.943150000000     0.499750000000     0.0428939  
H926     H      0.616660000000     0.461600000000     0.531720000000     0.039581   
H927     H      0.655630000000     0.543140000000     0.992230000000     0.0430901  
H928     H      0.619070000000     0.523720000000     0.031160000000     0.039209   
H929     H      0.755700000000     0.707060000000     0.600230000000     0.0431892  
H930     H      0.723830000000     0.787920000000     0.583480000000     0.0394914  
H931     H      0.712370000000     0.749850000000     0.624910000000     0.0432313  
H932     H      0.793420000000     0.716870000000     0.584900000000     0.0387214  
H933     H      0.792720000000     0.717440000000     0.642930000000     0.0391875  
H934     H      0.802410000000     0.754760000000     0.627000000000     0.0426274  
H935     H      0.761260000000     0.796540000000     0.600280000000     0.0426142  
H936     H      0.721750000000     0.787130000000     0.641130000000     0.0393922  
H937     H      0.756130000000     0.706110000000     0.869430000000     0.0421277  
H938     H      0.801590000000     0.750520000000     0.873200000000     0.0395331  
H939     H      0.789490000000     0.787920000000     0.834000000000     0.0410222  
H940     H      0.720980000000     0.714140000000     0.891120000000     0.0394767  
H941     H      0.714010000000     0.722210000000     0.834200000000     0.0398058  
H942     H      0.707590000000     0.757280000000     0.856210000000     0.0420135  
H943     H      0.791030000000     0.785470000000     0.893060000000     0.0412339  
H944     H      0.754660000000     0.800040000000     0.853550000000     0.0392965  
H945     H      0.796590000000     0.503280000000     0.632890000000     0.0424717  
H946     H      0.749600000000     0.547010000000     0.636010000000     0.0394453  
H947     H      0.712900000000     0.531380000000     0.597350000000     0.0409292  
H948     H      0.790540000000     0.969250000000     0.656540000000     0.039969   
H949     H      0.781350000000     0.958530000000     0.600620000000     0.0399402  
H950     H      0.746600000000     0.952590000000     0.623590000000     0.0416118  
H951     H      0.715370000000     0.535190000000     0.656680000000     0.0410323  
H952     H      0.702040000000     0.997320000000     0.618520000000     0.0380925  
H953     H      0.802050000000     0.997560000000     0.863690000000     0.0422728  
H954     H      0.721180000000     0.965800000000     0.848300000000     0.0394367  
H955     H      0.761030000000     0.954060000000     0.888340000000     0.042508   
H956     H      0.791980000000     0.535630000000     0.849950000000     0.0393845  
H957     H      0.793140000000     0.532940000000     0.907920000000     0.0388115  
H958     H      0.755250000000     0.543360000000     0.893430000000     0.0433675  
H959     H      0.712050000000     0.002150000000     0.866590000000     0.0438344  
H960     H      0.723740000000     0.461740000000     0.905840000000     0.0396644  
H961     H      0.722590000000     0.874580000000     0.708490000000     0.0394649  
H962     H      0.784620000000     0.874730000000     0.708180000000     0.0393147  
H963     H      0.804770000000     0.905670000000     0.750990000000     0.0426485  
H964     H      0.703360000000     0.850430000000     0.736470000000     0.0431273  
H965     H      0.703860000000     0.906700000000     0.750840000000     0.0432866  
H966     H      0.722680000000     0.882260000000     0.778780000000     0.039506   
H967     H      0.804300000000     0.850080000000     0.735440000000     0.0429237  
H968     H      0.785310000000     0.881270000000     0.778660000000     0.0395979  
H969     H      0.786880000000     0.623900000000     0.782270000000     0.0396241  
H970     H      0.724680000000     0.624250000000     0.782630000000     0.039578   
H971     H      0.704550000000     0.655770000000     0.740250000000     0.0426794  
H972     H      0.805930000000     0.600260000000     0.753780000000     0.0431552  
H973     H      0.805420000000     0.656910000000     0.740640000000     0.0433152  
H974     H      0.786780000000     0.632970000000     0.712170000000     0.0395723  
H975     H      0.705020000000     0.599990000000     0.754990000000     0.0428911  
H976     H      0.724030000000     0.631770000000     0.712230000000     0.0398525  
H977     H      0.516450000000     0.800460000000     0.616190000000     0.0421578  
H978     H      0.548450000000     0.721890000000     0.601410000000     0.0380652  
H979     H      0.554950000000     0.759550000000     0.644200000000     0.0422993  
H980     H      0.979390000000     0.793280000000     0.597940000000     0.0398061  
H981     H      0.975090000000     0.791930000000     0.655560000000     0.0386746  
H982     H      0.965060000000     0.755230000000     0.638540000000     0.0442679  
H983     H      0.510460000000     0.711050000000     0.615260000000     0.0443299  
H984     H      0.045480000000     0.721830000000     0.659360000000     0.0394116  
H985     H      0.026220000000     0.707060000000     0.850200000000     0.0377944  
H986     H      0.947610000000     0.739600000000     0.864780000000     0.0417973  
H987     H      0.955500000000     0.777030000000     0.907460000000     0.0376975  
H988     H      0.537740000000     0.743480000000     0.866880000000     0.0443982  
H989     H      0.486540000000     0.699150000000     0.891220000000     0.0417062  
H990     H      0.524530000000     0.705620000000     0.907860000000     0.0399848  
H991     H      0.956090000000     0.777460000000     0.849320000000     0.0394214  
H992     H      0.492620000000     0.788600000000     0.892030000000     0.0444576  
H993     H      0.529960000000     0.034200000000     0.586030000000     0.039339   
H994     H      0.998150000000     0.953170000000     0.601720000000     0.0439914  
H995     H      0.961820000000     0.962790000000     0.645140000000     0.0390816  
H996     H      0.492810000000     0.542620000000     0.603510000000     0.0426458  
H997     H      0.541770000000     0.495160000000     0.626630000000     0.0429969  
H998     H      0.533010000000     0.532240000000     0.643630000000     0.0388703  
H999     H      0.960230000000     0.963300000000     0.587090000000     0.0381642  
H1000    H      0.951820000000     0.500350000000     0.630020000000     0.0431554  
H1001    H      0.957810000000     0.001720000000     0.860690000000     0.0439981  
H1002    H      0.003650000000     0.546620000000     0.856430000000     0.038933   
H1003    H      0.540280000000     0.532770000000     0.895700000000     0.0407539  
H1004    H      0.964560000000     0.967490000000     0.837490000000     0.0401098  
H1005    H      0.974300000000     0.957690000000     0.893430000000     0.0393413  
H1006    H      0.509190000000     0.952510000000     0.870450000000     0.041831   
H1007    H      0.538180000000     0.535090000000     0.836100000000     0.0406732  
H1008    H      0.552510000000     0.498740000000     0.875220000000     0.0389609  
H1009    H      0.537290000000     0.880730000000     0.717840000000     0.0397525  
H1010    H      0.474040000000     0.876770000000     0.717430000000     0.0404668  
H1011    H      0.953920000000     0.847890000000     0.762490000000     0.0428973  
H1012    H      0.554090000000     0.904710000000     0.747380000000     0.0430377  
H1013    H      0.554770000000     0.846650000000     0.758630000000     0.0427551  
H1014    H      0.036570000000     0.870220000000     0.787780000000     0.0389987  
H1015    H      0.953330000000     0.901560000000     0.743790000000     0.0430565  
H1016    H      0.975080000000     0.873050000000     0.788070000000     0.0395033  
H1017    H      0.962220000000     0.632700000000     0.777330000000     0.0397685  
H1018    H      0.525940000000     0.628320000000     0.776890000000     0.04038    
H1019    H      0.545150000000     0.597650000000     0.732740000000     0.0430947  
H1020    H      0.945330000000     0.655140000000     0.746710000000     0.0431475  
H1021    H      0.944460000000     0.596360000000     0.738940000000     0.0427558  
H1022    H      0.961700000000     0.618380000000     0.708140000000     0.0395083  
H1023    H      0.546020000000     0.651960000000     0.748990000000     0.0429728  
H1024    H      0.523440000000     0.621640000000     0.706470000000     0.0392852  
N1       N      0.409970000000     0.247100000000     0.514050000000    -0.166283   
N2       N      0.350680000000     0.248100000000     0.987080000000    -0.166132   
N3       N      0.162270000000     0.252360000000     0.993440000000    -0.164467   
N4       N      0.096630000000     0.251970000000     0.487620000000    -0.165489   
N5       N      0.407020000000     0.499420000000     0.483110000000    -0.166057   
N6       N      0.347240000000     0.497680000000     0.509180000000    -0.165882   
N7       N      0.094520000000     0.493200000000     0.501500000000    -0.166183   
N8       N      0.159570000000     0.492980000000     0.492900000000    -0.165916   
N9       N      0.256930000000     0.252070000000     0.146070000000    -0.167418   
N10      N      0.258190000000     0.251830000000     0.080140000000    -0.167583   
N11      N      0.250170000000     0.256750000000     0.331350000000    -0.166057   
N12      N      0.257550000000     0.248080000000     0.394800000000    -0.166002   
N13      N      0.245610000000     0.493340000000     0.096280000000    -0.165551   
N14      N      0.254960000000     0.504400000000     0.159280000000    -0.165544   
N15      N      0.258200000000     0.997550000000     0.411020000000    -0.167259   
N16      N      0.256430000000     0.000980000000     0.345020000000    -0.166623   
N17      N      0.254370000000     0.409440000000     0.252830000000    -0.165928   
N18      N      0.253780000000     0.346950000000     0.234540000000    -0.16594    
N19      N      0.254930000000     0.159600000000     0.238460000000    -0.16577    
N20      N      0.255520000000     0.096800000000     0.255900000000    -0.165883   
N21      N      0.008770000000     0.255710000000     0.161420000000    -0.167606   
N22      N      0.012730000000     0.256020000000     0.095530000000    -0.16823    
N23      N      0.992040000000     0.243520000000     0.411640000000    -0.166349   
N24      N      0.993040000000     0.243940000000     0.345880000000    -0.167148   
N25      N      0.997570000000     0.497410000000     0.148470000000    -0.166597   
N26      N      0.995370000000     0.498300000000     0.082440000000    -0.166061   
N27      N      0.008970000000     0.993620000000     0.397250000000    -0.167523   
N28      N      0.999310000000     0.003380000000     0.334140000000    -0.164396   
N29      N      0.004490000000     0.343880000000     0.261540000000    -0.166512   
N30      N      0.003810000000     0.406400000000     0.243070000000    -0.166285   
N31      N      0.994630000000     0.093540000000     0.234740000000    -0.165179   
N32      N      0.995630000000     0.156870000000     0.250650000000    -0.165027   
N33      N      0.409970000000     0.247100000000     0.014050000000    -0.166116   
N34      N      0.350680000000     0.248090000000     0.487080000000    -0.165999   
N35      N      0.162270000000     0.252360000000     0.493440000000    -0.165251   
N36      N      0.096630000000     0.251970000000     0.987620000000    -0.165474   
N37      N      0.407010000000     0.499430000000     0.983110000000    -0.166177   
N38      N      0.347240000000     0.497680000000     0.009180000000    -0.16578    
N39      N      0.094520000000     0.493210000000     0.001500000000    -0.166581   
N40      N      0.159570000000     0.492980000000     0.992900000000    -0.166217   
N41      N      0.256930000000     0.252070000000     0.646070000000    -0.167356   
N42      N      0.258190000000     0.251830000000     0.580140000000    -0.16747    
N43      N      0.250170000000     0.256750000000     0.831350000000    -0.166069   
N44      N      0.257550000000     0.248080000000     0.894800000000    -0.165992   
N45      N      0.245610000000     0.493340000000     0.596280000000    -0.165591   
N46      N      0.254960000000     0.504400000000     0.659280000000    -0.16553    
N47      N      0.258200000000     0.997550000000     0.911020000000    -0.167158   
N48      N      0.256430000000     0.000980000000     0.845020000000    -0.166689   
N49      N      0.254370000000     0.409440000000     0.752830000000    -0.165917   
N50      N      0.253770000000     0.346950000000     0.734540000000    -0.165938   
N51      N      0.254930000000     0.159600000000     0.738460000000    -0.165771   
N52      N      0.255530000000     0.096800000000     0.755900000000    -0.165894   
N53      N      0.008770000000     0.255710000000     0.661420000000    -0.16758    
N54      N      0.012730000000     0.256020000000     0.595530000000    -0.168219   
N55      N      0.992040000000     0.243520000000     0.911640000000    -0.16622    
N56      N      0.993040000000     0.243940000000     0.845880000000    -0.167149   
N57      N      0.997560000000     0.497410000000     0.648470000000    -0.166535   
N58      N      0.995370000000     0.498300000000     0.582450000000    -0.165873   
N59      N      0.008970000000     0.993620000000     0.897250000000    -0.167531   
N60      N      0.999310000000     0.003380000000     0.834140000000    -0.16446    
N61      N      0.004490000000     0.343880000000     0.761540000000    -0.166509   
N62      N      0.003810000000     0.406400000000     0.743070000000    -0.166277   
N63      N      0.994630000000     0.093540000000     0.734740000000    -0.165177   
N64      N      0.995630000000     0.156870000000     0.750650000000    -0.165035   
N65      N      0.409970000000     0.747100000000     0.514050000000    -0.166283   
N66      N      0.350680000000     0.748100000000     0.987080000000    -0.166129   
N67      N      0.162270000000     0.752360000000     0.993440000000    -0.164477   
N68      N      0.096630000000     0.751970000000     0.487620000000    -0.165491   
N69      N      0.407020000000     0.999430000000     0.483110000000    -0.166291   
N70      N      0.347240000000     0.997680000000     0.509180000000    -0.166116   
N71      N      0.094520000000     0.993200000000     0.501500000000    -0.166416   
N72      N      0.159570000000     0.992980000000     0.492900000000    -0.16615    
N73      N      0.256930000000     0.752070000000     0.146070000000    -0.167415   
N74      N      0.258190000000     0.751830000000     0.080140000000    -0.167587   
N75      N      0.250170000000     0.756750000000     0.331350000000    -0.16606    
N76      N      0.257550000000     0.748080000000     0.394800000000    -0.166001   
N77      N      0.245610000000     0.993340000000     0.096280000000    -0.165992   
N78      N      0.254960000000     0.004400000000     0.159280000000    -0.164975   
N79      N      0.258200000000     0.497560000000     0.411020000000    -0.166981   
N80      N      0.256430000000     0.500980000000     0.345020000000    -0.166901   
N81      N      0.254370000000     0.909440000000     0.252830000000    -0.165983   
N82      N      0.253780000000     0.846950000000     0.234540000000    -0.165941   
N83      N      0.254930000000     0.659600000000     0.238460000000    -0.165769   
N84      N      0.255520000000     0.596800000000     0.255900000000    -0.165818   
N85      N      0.008770000000     0.755710000000     0.161420000000    -0.1676     
N86      N      0.012730000000     0.756020000000     0.095530000000    -0.168224   
N87      N      0.992040000000     0.743520000000     0.411640000000    -0.166398   
N88      N      0.993040000000     0.743940000000     0.345880000000    -0.167149   
N89      N      0.997570000000     0.997410000000     0.148470000000    -0.166839   
N90      N      0.995370000000     0.998300000000     0.082440000000    -0.166278   
N91      N      0.008970000000     0.493620000000     0.397250000000    -0.167092   
N92      N      0.999310000000     0.503380000000     0.334140000000    -0.16486    
N93      N      0.004490000000     0.843880000000     0.261540000000    -0.166513   
N94      N      0.003810000000     0.906400000000     0.243070000000    -0.166304   
N95      N      0.994630000000     0.593540000000     0.234740000000    -0.165268   
N96      N      0.995630000000     0.656870000000     0.250650000000    -0.165026   
N97      N      0.409970000000     0.747100000000     0.014050000000    -0.166117   
N98      N      0.350680000000     0.748090000000     0.487080000000    -0.165999   
N99      N      0.162270000000     0.752360000000     0.493440000000    -0.165246   
N100     N      0.096630000000     0.751970000000     0.987620000000    -0.165449   
N101     N      0.407010000000     0.999430000000     0.983110000000    -0.166416   
N102     N      0.347240000000     0.997680000000     0.009180000000    -0.16601    
N103     N      0.094520000000     0.993210000000     0.001500000000    -0.166822   
N104     N      0.159570000000     0.992980000000     0.992900000000    -0.166448   
N105     N      0.256930000000     0.752070000000     0.646070000000    -0.167369   
N106     N      0.258190000000     0.751830000000     0.580140000000    -0.167495   
N107     N      0.250170000000     0.756750000000     0.831350000000    -0.166068   
N108     N      0.257550000000     0.748080000000     0.894800000000    -0.165993   
N109     N      0.245610000000     0.993340000000     0.596280000000    -0.166036   
N110     N      0.254960000000     0.004400000000     0.659280000000    -0.164956   
N111     N      0.258200000000     0.497550000000     0.911020000000    -0.166882   
N112     N      0.256430000000     0.500980000000     0.845020000000    -0.166958   
N113     N      0.254370000000     0.909440000000     0.752830000000    -0.165975   
N114     N      0.253770000000     0.846950000000     0.734540000000    -0.165938   
N115     N      0.254930000000     0.659600000000     0.738460000000    -0.16577    
N116     N      0.255530000000     0.596810000000     0.755900000000    -0.165816   
N117     N      0.008770000000     0.755720000000     0.661420000000    -0.167575   
N118     N      0.012730000000     0.756020000000     0.595530000000    -0.168216   
N119     N      0.992040000000     0.743520000000     0.911640000000    -0.166237   
N120     N      0.993040000000     0.743940000000     0.845880000000    -0.167149   
N121     N      0.997560000000     0.997410000000     0.648470000000    -0.166773   
N122     N      0.995370000000     0.998300000000     0.582450000000    -0.166112   
N123     N      0.008970000000     0.493620000000     0.897250000000    -0.167098   
N124     N      0.999310000000     0.503380000000     0.834140000000    -0.164928   
N125     N      0.004490000000     0.843880000000     0.761540000000    -0.166512   
N126     N      0.003810000000     0.906400000000     0.743070000000    -0.166307   
N127     N      0.994630000000     0.593550000000     0.734740000000    -0.16519    
N128     N      0.995630000000     0.656870000000     0.750650000000    -0.165034   
N129     N      0.909970000000     0.247100000000     0.514050000000    -0.166135   
N130     N      0.850680000000     0.248100000000     0.987080000000    -0.166133   
N131     N      0.662270000000     0.252360000000     0.993440000000    -0.164471   
N132     N      0.596630000000     0.251970000000     0.487620000000    -0.165432   
N133     N      0.907020000000     0.499420000000     0.483110000000    -0.165992   
N134     N      0.847240000000     0.497680000000     0.509180000000    -0.165881   
N135     N      0.594520000000     0.493200000000     0.501500000000    -0.166115   
N136     N      0.659570000000     0.492980000000     0.492900000000    -0.165916   
N137     N      0.756930000000     0.252070000000     0.146070000000    -0.167417   
N138     N      0.758190000000     0.251830000000     0.080140000000    -0.167583   
N139     N      0.750170000000     0.256750000000     0.331350000000    -0.16605    
N140     N      0.757550000000     0.248080000000     0.394800000000    -0.166017   
N141     N      0.745600000000     0.493340000000     0.096280000000    -0.165552   
N142     N      0.754960000000     0.504400000000     0.159280000000    -0.16552    
N143     N      0.758200000000     0.997550000000     0.411020000000    -0.167262   
N144     N      0.756430000000     0.000980000000     0.345020000000    -0.166617   
N145     N      0.754370000000     0.409440000000     0.252830000000    -0.165925   
N146     N      0.753770000000     0.346950000000     0.234540000000    -0.165941   
N147     N      0.754930000000     0.159600000000     0.238460000000    -0.165791   
N148     N      0.755520000000     0.096800000000     0.255900000000    -0.165874   
N149     N      0.508770000000     0.255710000000     0.161420000000    -0.167136   
N150     N      0.512730000000     0.256020000000     0.095530000000    -0.167097   
N151     N      0.492050000000     0.243520000000     0.411640000000    -0.167666   
N152     N      0.493040000000     0.243940000000     0.345880000000    -0.167612   
N153     N      0.497560000000     0.497410000000     0.148470000000    -0.16707    
N154     N      0.495370000000     0.498300000000     0.082440000000    -0.167293   
N155     N      0.508970000000     0.993620000000     0.397250000000    -0.166229   
N156     N      0.499310000000     0.003380000000     0.334140000000    -0.165281   
N157     N      0.504480000000     0.343880000000     0.261540000000    -0.165896   
N158     N      0.503810000000     0.406400000000     0.243070000000    -0.165659   
N159     N      0.494630000000     0.093540000000     0.234740000000    -0.165822   
N160     N      0.495630000000     0.156870000000     0.250650000000    -0.16567    
N161     N      0.909970000000     0.247100000000     0.014050000000    -0.165967   
N162     N      0.850680000000     0.248090000000     0.487080000000    -0.166001   
N163     N      0.662270000000     0.252360000000     0.493440000000    -0.165251   
N164     N      0.596630000000     0.251970000000     0.987620000000    -0.165477   
N165     N      0.907020000000     0.499430000000     0.983110000000    -0.166123   
N166     N      0.847240000000     0.497680000000     0.009180000000    -0.165843   
N167     N      0.594520000000     0.493210000000     0.001500000000    -0.166512   
N168     N      0.659570000000     0.492980000000     0.992900000000    -0.166214   
N169     N      0.756930000000     0.252070000000     0.646070000000    -0.16736    
N170     N      0.758190000000     0.251830000000     0.580140000000    -0.167469   
N171     N      0.750170000000     0.256750000000     0.831350000000    -0.166027   
N172     N      0.757550000000     0.248080000000     0.894800000000    -0.165992   
N173     N      0.745610000000     0.493340000000     0.596280000000    -0.16559    
N174     N      0.754960000000     0.504400000000     0.659280000000    -0.165531   
N175     N      0.758200000000     0.997550000000     0.911020000000    -0.167163   
N176     N      0.756430000000     0.000980000000     0.845020000000    -0.166683   
N177     N      0.754370000000     0.409440000000     0.752830000000    -0.165918   
N178     N      0.753770000000     0.346950000000     0.734540000000    -0.165942   
N179     N      0.754930000000     0.159600000000     0.738460000000    -0.165775   
N180     N      0.755520000000     0.096800000000     0.755900000000    -0.165895   
N181     N      0.508770000000     0.255710000000     0.661420000000    -0.167197   
N182     N      0.512730000000     0.256020000000     0.595530000000    -0.167083   
N183     N      0.492050000000     0.243520000000     0.911640000000    -0.167518   
N184     N      0.493040000000     0.243940000000     0.845880000000    -0.16761    
N185     N      0.497560000000     0.497410000000     0.648470000000    -0.16701    
N186     N      0.495370000000     0.498300000000     0.582450000000    -0.167098   
N187     N      0.508970000000     0.993620000000     0.897250000000    -0.166226   
N188     N      0.499310000000     0.003380000000     0.834140000000    -0.165298   
N189     N      0.504490000000     0.343880000000     0.761540000000    -0.165895   
N190     N      0.503810000000     0.406400000000     0.743070000000    -0.165655   
N191     N      0.494630000000     0.093540000000     0.734740000000    -0.165789   
N192     N      0.495630000000     0.156870000000     0.750650000000    -0.165688   
N193     N      0.909970000000     0.747100000000     0.514050000000    -0.166136   
N194     N      0.850680000000     0.748100000000     0.987080000000    -0.16613    
N195     N      0.662270000000     0.752360000000     0.993440000000    -0.164481   
N196     N      0.596630000000     0.751970000000     0.487620000000    -0.165434   
N197     N      0.907020000000     0.999430000000     0.483110000000    -0.166228   
N198     N      0.847240000000     0.997680000000     0.509180000000    -0.166116   
N199     N      0.594520000000     0.993200000000     0.501500000000    -0.166352   
N200     N      0.659570000000     0.992980000000     0.492900000000    -0.166153   
N201     N      0.756930000000     0.752070000000     0.146070000000    -0.167415   
N202     N      0.758190000000     0.751830000000     0.080140000000    -0.167587   
N203     N      0.750170000000     0.756750000000     0.331350000000    -0.166053   
N204     N      0.757550000000     0.748080000000     0.394800000000    -0.166017   
N205     N      0.745600000000     0.993340000000     0.096280000000    -0.165996   
N206     N      0.754960000000     0.004400000000     0.159280000000    -0.164947   
N207     N      0.758200000000     0.497560000000     0.411020000000    -0.16698    
N208     N      0.756430000000     0.500980000000     0.345020000000    -0.166897   
N209     N      0.754370000000     0.909440000000     0.252830000000    -0.16598    
N210     N      0.753770000000     0.846950000000     0.234540000000    -0.165942   
N211     N      0.754930000000     0.659600000000     0.238460000000    -0.165791   
N212     N      0.755520000000     0.596800000000     0.255900000000    -0.165808   
N213     N      0.508770000000     0.755710000000     0.161420000000    -0.167131   
N214     N      0.512730000000     0.756020000000     0.095530000000    -0.167094   
N215     N      0.492050000000     0.743520000000     0.411640000000    -0.167712   
N216     N      0.493040000000     0.743940000000     0.345880000000    -0.167612   
N217     N      0.497560000000     0.997410000000     0.148470000000    -0.167312   
N218     N      0.495370000000     0.998300000000     0.082440000000    -0.167509   
N219     N      0.508970000000     0.493620000000     0.397250000000    -0.165787   
N220     N      0.499310000000     0.503380000000     0.334140000000    -0.165745   
N221     N      0.504480000000     0.843880000000     0.261540000000    -0.1659     
N222     N      0.503810000000     0.906400000000     0.243070000000    -0.165681   
N223     N      0.494630000000     0.593540000000     0.234740000000    -0.16591    
N224     N      0.495630000000     0.656870000000     0.250650000000    -0.165667   
N225     N      0.909970000000     0.747100000000     0.014050000000    -0.165968   
N226     N      0.850680000000     0.748090000000     0.487080000000    -0.166001   
N227     N      0.662270000000     0.752360000000     0.493440000000    -0.165246   
N228     N      0.596630000000     0.751970000000     0.987620000000    -0.165452   
N229     N      0.907020000000     0.999430000000     0.983110000000    -0.166363   
N230     N      0.847240000000     0.997680000000     0.009180000000    -0.166074   
N231     N      0.594520000000     0.993210000000     0.001500000000    -0.166756   
N232     N      0.659570000000     0.992980000000     0.992900000000    -0.166448   
N233     N      0.756930000000     0.752070000000     0.646070000000    -0.167373   
N234     N      0.758190000000     0.751830000000     0.580140000000    -0.167494   
N235     N      0.750170000000     0.756750000000     0.831350000000    -0.166026   
N236     N      0.757550000000     0.748080000000     0.894800000000    -0.165993   
N237     N      0.745610000000     0.993340000000     0.596280000000    -0.166039   
N238     N      0.754960000000     0.004400000000     0.659280000000    -0.164952   
N239     N      0.758200000000     0.497550000000     0.911020000000    -0.166885   
N240     N      0.756430000000     0.500980000000     0.845020000000    -0.166954   
N241     N      0.754370000000     0.909440000000     0.752830000000    -0.165977   
N242     N      0.753770000000     0.846950000000     0.734540000000    -0.165943   
N243     N      0.754930000000     0.659600000000     0.738460000000    -0.165775   
N244     N      0.755520000000     0.596810000000     0.755900000000    -0.165817   
N245     N      0.508770000000     0.755720000000     0.661420000000    -0.167194   
N246     N      0.512730000000     0.756020000000     0.595530000000    -0.167084   
N247     N      0.492050000000     0.743520000000     0.911640000000    -0.167531   
N248     N      0.493040000000     0.743940000000     0.845880000000    -0.167609   
N249     N      0.497560000000     0.997410000000     0.648470000000    -0.167248   
N250     N      0.495370000000     0.998300000000     0.582450000000    -0.167337   
N251     N      0.508970000000     0.493620000000     0.897250000000    -0.165781   
N252     N      0.499310000000     0.503380000000     0.834140000000    -0.165765   
N253     N      0.504490000000     0.843880000000     0.761540000000    -0.1659     
N254     N      0.503810000000     0.906400000000     0.743070000000    -0.165688   
N255     N      0.494630000000     0.593550000000     0.734740000000    -0.165801   
N256     N      0.495630000000     0.656870000000     0.750650000000    -0.165685   
O1       O      0.470350000000     0.045870000000     0.239610000000    -0.39441    
O2       O      0.475590000000     0.451640000000     0.242930000000    -0.400088   
O3       O      0.473260000000     0.499200000000     0.288310000000    -0.398331   
O4       O      0.472280000000     0.996230000000     0.194870000000    -0.398533   
O5       O      0.024340000000     0.000400000000     0.194140000000    -0.397513   
O6       O      0.025190000000     0.504620000000     0.287890000000    -0.397181   
O7       O      0.027620000000     0.454450000000     0.242890000000    -0.395843   
O8       O      0.022390000000     0.048340000000     0.238710000000    -0.403687   
O9       O      0.471940000000     0.204930000000     0.249230000000    -0.39656    
O10      O      0.477000000000     0.298790000000     0.254960000000    -0.401583   
O11      O      0.478690000000     0.255560000000     0.205150000000    -0.396979   
O12      O      0.470700000000     0.249990000000     0.298330000000    -0.398527   
O13      O      0.022580000000     0.245230000000     0.302070000000    -0.401931   
O14      O      0.030550000000     0.250940000000     0.209280000000    -0.399747   
O15      O      0.028900000000     0.296140000000     0.258830000000    -0.394926   
O16      O      0.023840000000     0.202070000000     0.252860000000    -0.402177   
O17      O      0.229500000000     0.050220000000     0.255280000000    -0.399578   
O18      O      0.228900000000     0.456290000000     0.249910000000    -0.398745   
O19      O      0.229800000000     0.499820000000     0.299170000000    -0.395926   
O20      O      0.229080000000     0.006840000000     0.205520000000    -0.394897   
O21      O      0.280940000000     0.000940000000     0.205270000000    -0.397308   
O22      O      0.281770000000     0.504780000000     0.298750000000    -0.397984   
O23      O      0.280890000000     0.455860000000     0.253370000000    -0.398058   
O24      O      0.281440000000     0.050210000000     0.251160000000    -0.39701    
O25      O      0.228430000000     0.206010000000     0.236860000000    -0.39804    
O26      O      0.227740000000     0.300360000000     0.238480000000    -0.397385   
O27      O      0.229570000000     0.254750000000     0.191220000000    -0.399154   
O28      O      0.226210000000     0.251550000000     0.284530000000    -0.398868   
O29      O      0.278040000000     0.257450000000     0.286260000000    -0.396625   
O30      O      0.281540000000     0.249870000000     0.192890000000    -0.397366   
O31      O      0.279810000000     0.300400000000     0.236320000000    -0.399763   
O32      O      0.280250000000     0.206490000000     0.242240000000    -0.398661   
O33      O      0.454910000000     0.023830000000     0.485430000000    -0.395789   
O34      O      0.049240000000     0.020320000000     0.493690000000    -0.400851   
O35      O      0.007400000000     0.020830000000     0.442620000000    -0.395246   
O36      O      0.499200000000     0.023190000000     0.035960000000    -0.398094   
O37      O      0.495160000000     0.471430000000     0.036930000000    -0.398954   
O38      O      0.002950000000     0.469120000000     0.443670000000    -0.399499   
O39      O      0.047150000000     0.468580000000     0.994830000000    -0.397952   
O40      O      0.452780000000     0.472080000000     0.986320000000    -0.400668   
O41      O      0.455600000000     0.274220000000     0.508120000000    -0.400746   
O42      O      0.049550000000     0.277010000000     0.495110000000    -0.395309   
O43      O      0.995340000000     0.272490000000     0.455690000000    -0.397586   
O44      O      0.507670000000     0.278840000000     0.048150000000    -0.398739   
O45      O      0.511210000000     0.227140000000     0.051260000000    -0.398198   
O46      O      0.999630000000     0.220830000000     0.458690000000    -0.398209   
O47      O      0.051630000000     0.225380000000     0.998730000000    -0.399114   
O48      O      0.457640000000     0.222510000000     0.010660000000    -0.397096   
O49      O      0.205570000000     0.019890000000     0.498080000000    -0.39837    
O50      O      0.299620000000     0.022490000000     0.509740000000    -0.396183   
O51      O      0.258760000000     0.022310000000     0.457740000000    -0.396011   
O52      O      0.245790000000     0.020110000000     0.050620000000    -0.394713   
O53      O      0.252990000000     0.468720000000     0.050040000000    -0.39632    
O54      O      0.254460000000     0.470600000000     0.456370000000    -0.397318   
O55      O      0.301060000000     0.470980000000     0.004590000000    -0.39949    
O56      O      0.206400000000     0.468190000000     0.001240000000    -0.399248   
O57      O      0.209440000000     0.277040000000     0.486260000000    -0.396642   
O58      O      0.304240000000     0.274750000000     0.488340000000    -0.399273   
O59      O      0.259210000000     0.274870000000     0.440290000000    -0.397638   
O60      O      0.255130000000     0.276780000000     0.033700000000    -0.399885   
O61      O      0.259690000000     0.225070000000     0.034590000000    -0.398905   
O62      O      0.252210000000     0.223450000000     0.441240000000    -0.397002   
O63      O      0.303240000000     0.223070000000     0.985060000000    -0.397257   
O64      O      0.208640000000     0.225510000000     0.991370000000    -0.398002   
O65      O      0.470350000000     0.045870000000     0.739610000000    -0.394415   
O66      O      0.475590000000     0.451650000000     0.742930000000    -0.400017   
O67      O      0.473250000000     0.499200000000     0.788310000000    -0.398202   
O68      O      0.472280000000     0.996230000000     0.694870000000    -0.398618   
O69      O      0.024340000000     0.000400000000     0.694140000000    -0.397563   
O70      O      0.025190000000     0.504620000000     0.787890000000    -0.397182   
O71      O      0.027620000000     0.454450000000     0.742890000000    -0.395816   
O72      O      0.022390000000     0.048340000000     0.738710000000    -0.403762   
O73      O      0.471940000000     0.204930000000     0.749230000000    -0.396562   
O74      O      0.477000000000     0.298790000000     0.754960000000    -0.40159    
O75      O      0.478700000000     0.255560000000     0.705150000000    -0.397128   
O76      O      0.470700000000     0.249990000000     0.798330000000    -0.398529   
O77      O      0.022580000000     0.245230000000     0.802070000000    -0.401918   
O78      O      0.030550000000     0.250940000000     0.709280000000    -0.399741   
O79      O      0.028900000000     0.296140000000     0.758830000000    -0.394926   
O80      O      0.023840000000     0.202070000000     0.752860000000    -0.402166   
O81      O      0.229500000000     0.050220000000     0.755280000000    -0.399582   
O82      O      0.228900000000     0.456290000000     0.749910000000    -0.398727   
O83      O      0.229800000000     0.499820000000     0.799170000000    -0.395835   
O84      O      0.229080000000     0.006840000000     0.705520000000    -0.394921   
O85      O      0.280940000000     0.000940000000     0.705260000000    -0.397275   
O86      O      0.281770000000     0.504790000000     0.798750000000    -0.397859   
O87      O      0.280890000000     0.455860000000     0.753370000000    -0.397957   
O88      O      0.281440000000     0.050210000000     0.751160000000    -0.396994   
O89      O      0.228430000000     0.206010000000     0.736860000000    -0.398036   
O90      O      0.227740000000     0.300360000000     0.738480000000    -0.397378   
O91      O      0.229570000000     0.254750000000     0.691220000000    -0.399225   
O92      O      0.226210000000     0.251550000000     0.784530000000    -0.398858   
O93      O      0.278040000000     0.257450000000     0.786260000000    -0.396635   
O94      O      0.281540000000     0.249880000000     0.692890000000    -0.397466   
O95      O      0.279810000000     0.300400000000     0.736320000000    -0.399761   
O96      O      0.280250000000     0.206490000000     0.742240000000    -0.398667   
O97      O      0.454910000000     0.023830000000     0.985430000000    -0.395557   
O98      O      0.049240000000     0.020320000000     0.993690000000    -0.400681   
O99      O      0.007400000000     0.020830000000     0.942610000000    -0.395381   
O100     O      0.499200000000     0.023190000000     0.535960000000    -0.397102   
O101     O      0.495160000000     0.471430000000     0.536930000000    -0.398023   
O102     O      0.002950000000     0.469120000000     0.943670000000    -0.399762   
O103     O      0.047150000000     0.468580000000     0.494830000000    -0.397979   
O104     O      0.452780000000     0.472080000000     0.486320000000    -0.400882   
O105     O      0.455600000000     0.274220000000     0.008120000000    -0.400712   
O106     O      0.049550000000     0.277010000000     0.995110000000    -0.394256   
O107     O      0.995350000000     0.272500000000     0.955690000000    -0.396517   
O108     O      0.507670000000     0.278840000000     0.548150000000    -0.39882    
O109     O      0.511210000000     0.227140000000     0.551260000000    -0.398308   
O110     O      0.999630000000     0.220830000000     0.958690000000    -0.397221   
O111     O      0.051630000000     0.225380000000     0.498730000000    -0.400196   
O112     O      0.457640000000     0.222510000000     0.510660000000    -0.397147   
O113     O      0.205570000000     0.019890000000     0.998080000000    -0.397632   
O114     O      0.299620000000     0.022490000000     0.009740000000    -0.396202   
O115     O      0.258760000000     0.022310000000     0.957740000000    -0.3949     
O116     O      0.245790000000     0.020110000000     0.550620000000    -0.39487    
O117     O      0.252990000000     0.468730000000     0.550040000000    -0.396538   
O118     O      0.254460000000     0.470600000000     0.956380000000    -0.396525   
O119     O      0.301060000000     0.470970000000     0.504590000000    -0.399211   
O120     O      0.206400000000     0.468200000000     0.501240000000    -0.397943   
O121     O      0.209440000000     0.277040000000     0.986260000000    -0.396509   
O122     O      0.304240000000     0.274750000000     0.988330000000    -0.399144   
O123     O      0.259210000000     0.274870000000     0.940290000000    -0.397756   
O124     O      0.255130000000     0.276780000000     0.533700000000    -0.398832   
O125     O      0.259690000000     0.225070000000     0.534580000000    -0.397913   
O126     O      0.252210000000     0.223450000000     0.941250000000    -0.397156   
O127     O      0.303240000000     0.223070000000     0.485060000000    -0.397362   
O128     O      0.208640000000     0.225510000000     0.491370000000    -0.398233   
O129     O      0.470350000000     0.545870000000     0.239610000000    -0.39484    
O130     O      0.475590000000     0.951640000000     0.242930000000    -0.400026   
O131     O      0.473260000000     0.999200000000     0.288310000000    -0.399025   
O132     O      0.472280000000     0.496230000000     0.194870000000    -0.398639   
O133     O      0.024340000000     0.500400000000     0.194140000000    -0.398249   
O134     O      0.025190000000     0.004620000000     0.287890000000    -0.39728    
O135     O      0.027620000000     0.954450000000     0.242890000000    -0.396376   
O136     O      0.022390000000     0.548340000000     0.238710000000    -0.403519   
O137     O      0.471940000000     0.704930000000     0.249230000000    -0.396561   
O138     O      0.477000000000     0.798790000000     0.254960000000    -0.401587   
O139     O      0.478690000000     0.755560000000     0.205150000000    -0.396978   
O140     O      0.470700000000     0.749990000000     0.298330000000    -0.398527   
O141     O      0.022580000000     0.745230000000     0.302070000000    -0.401926   
O142     O      0.030550000000     0.750940000000     0.209280000000    -0.399749   
O143     O      0.028900000000     0.796140000000     0.258830000000    -0.394929   
O144     O      0.023840000000     0.702070000000     0.252860000000    -0.402173   
O145     O      0.229500000000     0.550220000000     0.255280000000    -0.399539   
O146     O      0.228900000000     0.956290000000     0.249910000000    -0.399329   
O147     O      0.229800000000     0.999820000000     0.299170000000    -0.397188   
O148     O      0.229080000000     0.506840000000     0.205520000000    -0.394921   
O149     O      0.280940000000     0.500940000000     0.205270000000    -0.397494   
O150     O      0.281770000000     0.004780000000     0.298750000000    -0.398072   
O151     O      0.280890000000     0.955860000000     0.253370000000    -0.398612   
O152     O      0.281440000000     0.550210000000     0.251160000000    -0.397002   
O153     O      0.228430000000     0.706010000000     0.236860000000    -0.398039   
O154     O      0.227740000000     0.800360000000     0.238480000000    -0.397388   
O155     O      0.229570000000     0.754750000000     0.191220000000    -0.399153   
O156     O      0.226210000000     0.751550000000     0.284530000000    -0.398868   
O157     O      0.278040000000     0.757450000000     0.286260000000    -0.396624   
O158     O      0.281540000000     0.749870000000     0.192890000000    -0.397365   
O159     O      0.279810000000     0.800400000000     0.236320000000    -0.399765   
O160     O      0.280250000000     0.706490000000     0.242240000000    -0.398661   
O161     O      0.454910000000     0.523830000000     0.485430000000    -0.396493   
O162     O      0.049240000000     0.520320000000     0.493690000000    -0.401538   
O163     O      0.007400000000     0.520830000000     0.442620000000    -0.395919   
O164     O      0.499200000000     0.523190000000     0.035960000000    -0.398774   
O165     O      0.495160000000     0.971430000000     0.036930000000    -0.398738   
O166     O      0.002950000000     0.969120000000     0.443670000000    -0.399297   
O167     O      0.047150000000     0.968580000000     0.994830000000    -0.397743   
O168     O      0.452780000000     0.972080000000     0.986320000000    -0.400456   
O169     O      0.455600000000     0.774220000000     0.508120000000    -0.400746   
O170     O      0.049550000000     0.777010000000     0.495110000000    -0.395311   
O171     O      0.995340000000     0.772490000000     0.455690000000    -0.397647   
O172     O      0.507670000000     0.778840000000     0.048150000000    -0.398726   
O173     O      0.511210000000     0.727140000000     0.051260000000    -0.398184   
O174     O      0.999630000000     0.720840000000     0.458690000000    -0.398371   
O175     O      0.051630000000     0.725380000000     0.998730000000    -0.3991     
O176     O      0.457640000000     0.722510000000     0.010660000000    -0.397074   
O177     O      0.205570000000     0.519890000000     0.498080000000    -0.399066   
O178     O      0.299620000000     0.522490000000     0.509740000000    -0.396874   
O179     O      0.258760000000     0.522310000000     0.457740000000    -0.396693   
O180     O      0.245790000000     0.520110000000     0.050620000000    -0.395383   
O181     O      0.252990000000     0.968720000000     0.050040000000    -0.396132   
O182     O      0.254460000000     0.970600000000     0.456370000000    -0.397109   
O183     O      0.301060000000     0.970980000000     0.004590000000    -0.399287   
O184     O      0.206400000000     0.968190000000     0.001240000000    -0.399026   
O185     O      0.209440000000     0.777040000000     0.486260000000    -0.396643   
O186     O      0.304240000000     0.774750000000     0.488340000000    -0.399274   
O187     O      0.259210000000     0.774870000000     0.440290000000    -0.397643   
O188     O      0.255130000000     0.776780000000     0.033700000000    -0.399883   
O189     O      0.259690000000     0.725070000000     0.034590000000    -0.398899   
O190     O      0.252210000000     0.723450000000     0.441240000000    -0.397008   
O191     O      0.303240000000     0.723070000000     0.985060000000    -0.397254   
O192     O      0.208640000000     0.725510000000     0.991370000000    -0.397906   
O193     O      0.470350000000     0.545870000000     0.739610000000    -0.394821   
O194     O      0.475590000000     0.951650000000     0.742930000000    -0.399991   
O195     O      0.473250000000     0.999200000000     0.788310000000    -0.398902   
O196     O      0.472280000000     0.496230000000     0.694870000000    -0.398725   
O197     O      0.024340000000     0.500400000000     0.694140000000    -0.398317   
O198     O      0.025190000000     0.004620000000     0.787890000000    -0.397272   
O199     O      0.027620000000     0.954440000000     0.742890000000    -0.396342   
O200     O      0.022390000000     0.548340000000     0.738710000000    -0.403584   
O201     O      0.471940000000     0.704930000000     0.749230000000    -0.396563   
O202     O      0.477000000000     0.798790000000     0.754960000000    -0.401588   
O203     O      0.478700000000     0.755560000000     0.705150000000    -0.397127   
O204     O      0.470700000000     0.749990000000     0.798330000000    -0.398529   
O205     O      0.022580000000     0.745230000000     0.802070000000    -0.401913   
O206     O      0.030550000000     0.750940000000     0.709280000000    -0.399741   
O207     O      0.028900000000     0.796140000000     0.758830000000    -0.394929   
O208     O      0.023840000000     0.702070000000     0.752860000000    -0.402163   
O209     O      0.229500000000     0.550220000000     0.755280000000    -0.399443   
O210     O      0.228900000000     0.956290000000     0.749910000000    -0.399333   
O211     O      0.229800000000     0.999820000000     0.799170000000    -0.397114   
O212     O      0.229080000000     0.506840000000     0.705520000000    -0.394953   
O213     O      0.280940000000     0.500940000000     0.705260000000    -0.397443   
O214     O      0.281770000000     0.004780000000     0.798750000000    -0.397967   
O215     O      0.280890000000     0.955860000000     0.753370000000    -0.398602   
O216     O      0.281440000000     0.550210000000     0.751160000000    -0.396957   
O217     O      0.228430000000     0.706010000000     0.736860000000    -0.398055   
O218     O      0.227740000000     0.800350000000     0.738480000000    -0.397407   
O219     O      0.229570000000     0.754750000000     0.691220000000    -0.399237   
O220     O      0.226210000000     0.751550000000     0.784530000000    -0.398869   
O221     O      0.278040000000     0.757450000000     0.786260000000    -0.396635   
O222     O      0.281540000000     0.749880000000     0.692890000000    -0.397467   
O223     O      0.279810000000     0.800400000000     0.736320000000    -0.399731   
O224     O      0.280250000000     0.706490000000     0.742240000000    -0.398668   
O225     O      0.454910000000     0.523830000000     0.985430000000    -0.396257   
O226     O      0.049240000000     0.520320000000     0.993690000000    -0.401371   
O227     O      0.007400000000     0.520830000000     0.942610000000    -0.396056   
O228     O      0.499200000000     0.523190000000     0.535960000000    -0.397795   
O229     O      0.495160000000     0.971430000000     0.536930000000    -0.397813   
O230     O      0.002950000000     0.969120000000     0.943670000000    -0.399558   
O231     O      0.047150000000     0.968580000000     0.494830000000    -0.39777    
O232     O      0.452780000000     0.972080000000     0.486320000000    -0.400673   
O233     O      0.455600000000     0.774220000000     0.008120000000    -0.400694   
O234     O      0.049550000000     0.777010000000     0.995110000000    -0.394245   
O235     O      0.995350000000     0.772500000000     0.955690000000    -0.396512   
O236     O      0.507670000000     0.778840000000     0.548150000000    -0.398824   
O237     O      0.511210000000     0.727140000000     0.551260000000    -0.398316   
O238     O      0.999630000000     0.720830000000     0.958690000000    -0.397204   
O239     O      0.051630000000     0.725380000000     0.498730000000    -0.4002     
O240     O      0.457640000000     0.722510000000     0.510660000000    -0.397153   
O241     O      0.205570000000     0.519890000000     0.998080000000    -0.398337   
O242     O      0.299620000000     0.522490000000     0.009740000000    -0.396882   
O243     O      0.258760000000     0.522310000000     0.957740000000    -0.395592   
O244     O      0.245790000000     0.520110000000     0.550620000000    -0.395549   
O245     O      0.252990000000     0.968730000000     0.550040000000    -0.396346   
O246     O      0.254460000000     0.970600000000     0.956380000000    -0.396326   
O247     O      0.301060000000     0.970970000000     0.504590000000    -0.399005   
O248     O      0.206400000000     0.968200000000     0.501240000000    -0.397734   
O249     O      0.209440000000     0.777040000000     0.986260000000    -0.396603   
O250     O      0.304240000000     0.774750000000     0.988330000000    -0.399147   
O251     O      0.259210000000     0.774870000000     0.940290000000    -0.397757   
O252     O      0.255130000000     0.776780000000     0.533700000000    -0.398889   
O253     O      0.259690000000     0.725080000000     0.534580000000    -0.398065   
O254     O      0.252210000000     0.723450000000     0.941250000000    -0.397153   
O255     O      0.303240000000     0.723070000000     0.485060000000    -0.397365   
O256     O      0.208640000000     0.725510000000     0.491370000000    -0.398237   
O257     O      0.970350000000     0.045870000000     0.239610000000    -0.394955   
O258     O      0.975590000000     0.451640000000     0.242930000000    -0.398534   
O259     O      0.973260000000     0.499200000000     0.288310000000    -0.398875   
O260     O      0.972280000000     0.996230000000     0.194870000000    -0.399048   
O261     O      0.524340000000     0.000400000000     0.194140000000    -0.395809   
O262     O      0.525190000000     0.504620000000     0.287890000000    -0.3956     
O263     O      0.527620000000     0.454450000000     0.242890000000    -0.39618    
O264     O      0.522390000000     0.048340000000     0.238710000000    -0.402123   
O265     O      0.971940000000     0.204930000000     0.249230000000    -0.396938   
O266     O      0.977000000000     0.298790000000     0.254960000000    -0.399959   
O267     O      0.978690000000     0.255560000000     0.205150000000    -0.395299   
O268     O      0.970700000000     0.249990000000     0.298330000000    -0.398957   
O269     O      0.522580000000     0.245230000000     0.302070000000    -0.400278   
O270     O      0.530550000000     0.250940000000     0.209280000000    -0.400209   
O271     O      0.528900000000     0.296140000000     0.258830000000    -0.395328   
O272     O      0.523840000000     0.202070000000     0.252860000000    -0.400574   
O273     O      0.729500000000     0.050220000000     0.255280000000    -0.39956    
O274     O      0.728900000000     0.456290000000     0.249910000000    -0.398721   
O275     O      0.729800000000     0.499820000000     0.299170000000    -0.395906   
O276     O      0.729080000000     0.006840000000     0.205520000000    -0.394874   
O277     O      0.780940000000     0.000940000000     0.205270000000    -0.397291   
O278     O      0.781770000000     0.504780000000     0.298750000000    -0.397964   
O279     O      0.780890000000     0.455860000000     0.253370000000    -0.398044   
O280     O      0.781440000000     0.050210000000     0.251160000000    -0.396992   
O281     O      0.728430000000     0.206010000000     0.236860000000    -0.398044   
O282     O      0.727740000000     0.300360000000     0.238480000000    -0.397379   
O283     O      0.729570000000     0.254750000000     0.191220000000    -0.399153   
O284     O      0.726210000000     0.251550000000     0.284530000000    -0.398866   
O285     O      0.778040000000     0.257450000000     0.286260000000    -0.396625   
O286     O      0.781540000000     0.249870000000     0.192890000000    -0.39736    
O287     O      0.779810000000     0.300400000000     0.236320000000    -0.399767   
O288     O      0.780250000000     0.206490000000     0.242240000000    -0.398659   
O289     O      0.954910000000     0.023830000000     0.485430000000    -0.394394   
O290     O      0.549240000000     0.020320000000     0.493690000000    -0.401084   
O291     O      0.507400000000     0.020830000000     0.442620000000    -0.395248   
O292     O      0.999200000000     0.023190000000     0.035960000000    -0.396276   
O293     O      0.995160000000     0.471430000000     0.036930000000    -0.398942   
O294     O      0.502950000000     0.469120000000     0.443670000000    -0.397697   
O295     O      0.547150000000     0.468580000000     0.994830000000    -0.39657    
O296     O      0.952780000000     0.472080000000     0.986320000000    -0.401019   
O297     O      0.955600000000     0.274220000000     0.508120000000    -0.399355   
O298     O      0.549550000000     0.277010000000     0.495110000000    -0.395562   
O299     O      0.495350000000     0.272490000000     0.455690000000    -0.399201   
O300     O      0.007670000000     0.278840000000     0.048150000000    -0.398922   
O301     O      0.011210000000     0.227140000000     0.051260000000    -0.398167   
O302     O      0.499630000000     0.220830000000     0.458690000000    -0.400061   
O303     O      0.551630000000     0.225380000000     0.998730000000    -0.399335   
O304     O      0.957650000000     0.222510000000     0.010660000000    -0.395688   
O305     O      0.705570000000     0.019890000000     0.498080000000    -0.398365   
O306     O      0.799620000000     0.022490000000     0.509740000000    -0.396173   
O307     O      0.758760000000     0.022310000000     0.457740000000    -0.396005   
O308     O      0.745790000000     0.020110000000     0.050620000000    -0.394706   
O309     O      0.752990000000     0.468720000000     0.050040000000    -0.396316   
O310     O      0.754460000000     0.470600000000     0.456370000000    -0.397318   
O311     O      0.801060000000     0.470980000000     0.004590000000    -0.399408   
O312     O      0.706400000000     0.468190000000     0.001240000000    -0.399231   
O313     O      0.709440000000     0.277040000000     0.486260000000    -0.396634   
O314     O      0.804240000000     0.274750000000     0.488340000000    -0.399277   
O315     O      0.759200000000     0.274870000000     0.440290000000    -0.397662   
O316     O      0.755130000000     0.276780000000     0.033700000000    -0.399867   
O317     O      0.759690000000     0.225070000000     0.034590000000    -0.398902   
O318     O      0.752210000000     0.223450000000     0.441240000000    -0.397009   
O319     O      0.803240000000     0.223070000000     0.985060000000    -0.397255   
O320     O      0.708640000000     0.225510000000     0.991370000000    -0.398001   
O321     O      0.970350000000     0.045870000000     0.739610000000    -0.394873   
O322     O      0.975590000000     0.451650000000     0.742930000000    -0.39857    
O323     O      0.973260000000     0.499200000000     0.788310000000    -0.398704   
O324     O      0.972280000000     0.996230000000     0.694870000000    -0.399126   
O325     O      0.524340000000     0.000400000000     0.694140000000    -0.395854   
O326     O      0.525190000000     0.504620000000     0.787890000000    -0.395366   
O327     O      0.527620000000     0.454450000000     0.742890000000    -0.396231   
O328     O      0.522390000000     0.048340000000     0.738710000000    -0.402102   
O329     O      0.971940000000     0.204930000000     0.749230000000    -0.396934   
O330     O      0.977000000000     0.298790000000     0.754960000000    -0.399971   
O331     O      0.978690000000     0.255560000000     0.705150000000    -0.395301   
O332     O      0.970700000000     0.249990000000     0.798330000000    -0.398952   
O333     O      0.522580000000     0.245230000000     0.802070000000    -0.400281   
O334     O      0.530550000000     0.250940000000     0.709280000000    -0.400265   
O335     O      0.528900000000     0.296140000000     0.758830000000    -0.395324   
O336     O      0.523840000000     0.202070000000     0.752860000000    -0.400576   
O337     O      0.729500000000     0.050220000000     0.755280000000    -0.39958    
O338     O      0.728900000000     0.456290000000     0.749910000000    -0.398726   
O339     O      0.729800000000     0.499820000000     0.799170000000    -0.395835   
O340     O      0.729080000000     0.006840000000     0.705520000000    -0.39492    
O341     O      0.780940000000     0.000940000000     0.705260000000    -0.397274   
O342     O      0.781770000000     0.504790000000     0.798750000000    -0.397855   
O343     O      0.780890000000     0.455860000000     0.753370000000    -0.397959   
O344     O      0.781440000000     0.050210000000     0.751160000000    -0.396996   
O345     O      0.728430000000     0.206010000000     0.736860000000    -0.398054   
O346     O      0.727740000000     0.300360000000     0.738480000000    -0.397393   
O347     O      0.729570000000     0.254750000000     0.691220000000    -0.399236   
O348     O      0.726200000000     0.251550000000     0.784530000000    -0.398726   
O349     O      0.778040000000     0.257450000000     0.786260000000    -0.396594   
O350     O      0.781540000000     0.249880000000     0.692890000000    -0.39747    
O351     O      0.779810000000     0.300400000000     0.736320000000    -0.399774   
O352     O      0.780250000000     0.206490000000     0.742240000000    -0.398678   
O353     O      0.954910000000     0.023830000000     0.985430000000    -0.394293   
O354     O      0.549240000000     0.020320000000     0.993690000000    -0.40091    
O355     O      0.507400000000     0.020830000000     0.942610000000    -0.395379   
O356     O      0.999200000000     0.023190000000     0.535960000000    -0.395283   
O357     O      0.995160000000     0.471430000000     0.536930000000    -0.398027   
O358     O      0.502950000000     0.469120000000     0.943670000000    -0.39798    
O359     O      0.547150000000     0.468580000000     0.494830000000    -0.396583   
O360     O      0.952780000000     0.472080000000     0.486320000000    -0.401125   
O361     O      0.955600000000     0.274220000000     0.008120000000    -0.399294   
O362     O      0.549550000000     0.277010000000     0.995110000000    -0.394436   
O363     O      0.495350000000     0.272500000000     0.955690000000    -0.398102   
O364     O      0.007670000000     0.278840000000     0.548150000000    -0.399012   
O365     O      0.011210000000     0.227140000000     0.551260000000    -0.398267   
O366     O      0.499630000000     0.220830000000     0.958690000000    -0.399045   
O367     O      0.551630000000     0.225380000000     0.498730000000    -0.400506   
O368     O      0.957640000000     0.222510000000     0.510660000000    -0.395731   
O369     O      0.705570000000     0.019890000000     0.998080000000    -0.397631   
O370     O      0.799620000000     0.022490000000     0.009740000000    -0.396108   
O371     O      0.758760000000     0.022310000000     0.957740000000    -0.394901   
O372     O      0.745790000000     0.020110000000     0.550620000000    -0.394865   
O373     O      0.752990000000     0.468730000000     0.550040000000    -0.396536   
O374     O      0.754460000000     0.470600000000     0.956380000000    -0.396532   
O375     O      0.801060000000     0.470970000000     0.504590000000    -0.399209   
O376     O      0.706400000000     0.468200000000     0.501240000000    -0.397938   
O377     O      0.709440000000     0.277040000000     0.986260000000    -0.396503   
O378     O      0.804240000000     0.274750000000     0.988330000000    -0.399147   
O379     O      0.759210000000     0.274870000000     0.940290000000    -0.397753   
O380     O      0.755130000000     0.276780000000     0.533700000000    -0.398844   
O381     O      0.759690000000     0.225070000000     0.534580000000    -0.397907   
O382     O      0.752210000000     0.223450000000     0.941250000000    -0.397154   
O383     O      0.803240000000     0.223070000000     0.485060000000    -0.397355   
O384     O      0.708640000000     0.225510000000     0.491370000000    -0.398236   
O385     O      0.970350000000     0.545870000000     0.239610000000    -0.395387   
O386     O      0.975590000000     0.951640000000     0.242930000000    -0.398481   
O387     O      0.973260000000     0.999200000000     0.288310000000    -0.399575   
O388     O      0.972280000000     0.496230000000     0.194870000000    -0.399154   
O389     O      0.524340000000     0.500400000000     0.194140000000    -0.396545   
O390     O      0.525190000000     0.004620000000     0.287890000000    -0.395695   
O391     O      0.527620000000     0.954450000000     0.242890000000    -0.396718   
O392     O      0.522390000000     0.548340000000     0.238710000000    -0.401958   
O393     O      0.971940000000     0.704930000000     0.249230000000    -0.396937   
O394     O      0.977000000000     0.798790000000     0.254960000000    -0.399969   
O395     O      0.978690000000     0.755560000000     0.205150000000    -0.395303   
O396     O      0.970700000000     0.749990000000     0.298330000000    -0.398956   
O397     O      0.522580000000     0.745230000000     0.302070000000    -0.400278   
O398     O      0.530550000000     0.750940000000     0.209280000000    -0.400209   
O399     O      0.528900000000     0.796140000000     0.258830000000    -0.39533    
O400     O      0.523840000000     0.702070000000     0.252860000000    -0.400574   
O401     O      0.729500000000     0.550220000000     0.255280000000    -0.39952    
O402     O      0.728900000000     0.956290000000     0.249910000000    -0.39931    
O403     O      0.729800000000     0.999820000000     0.299170000000    -0.397178   
O404     O      0.729080000000     0.506840000000     0.205520000000    -0.394897   
O405     O      0.780940000000     0.500940000000     0.205270000000    -0.397477   
O406     O      0.781770000000     0.004780000000     0.298750000000    -0.398054   
O407     O      0.780890000000     0.955860000000     0.253370000000    -0.398601   
O408     O      0.781440000000     0.550210000000     0.251160000000    -0.396984   
O409     O      0.728430000000     0.706010000000     0.236860000000    -0.398043   
O410     O      0.727740000000     0.800360000000     0.238480000000    -0.397382   
O411     O      0.729570000000     0.754750000000     0.191220000000    -0.399153   
O412     O      0.726210000000     0.751550000000     0.284530000000    -0.398866   
O413     O      0.778040000000     0.757450000000     0.286260000000    -0.396624   
O414     O      0.781540000000     0.749870000000     0.192890000000    -0.397359   
O415     O      0.779810000000     0.800400000000     0.236320000000    -0.399768   
O416     O      0.780250000000     0.706490000000     0.242240000000    -0.398659   
O417     O      0.954910000000     0.523830000000     0.485430000000    -0.395103   
O418     O      0.549240000000     0.520320000000     0.493690000000    -0.401778   
O419     O      0.507400000000     0.520830000000     0.442620000000    -0.39593    
O420     O      0.999200000000     0.523190000000     0.035960000000    -0.396962   
O421     O      0.995160000000     0.971430000000     0.036930000000    -0.398724   
O422     O      0.502950000000     0.969120000000     0.443670000000    -0.397503   
O423     O      0.547150000000     0.968580000000     0.994830000000    -0.396366   
O424     O      0.952780000000     0.972080000000     0.986320000000    -0.400803   
O425     O      0.955600000000     0.774220000000     0.508120000000    -0.39936    
O426     O      0.549550000000     0.777010000000     0.495110000000    -0.395563   
O427     O      0.495350000000     0.772490000000     0.455690000000    -0.399257   
O428     O      0.007670000000     0.778840000000     0.048150000000    -0.398908   
O429     O      0.011210000000     0.727140000000     0.051260000000    -0.398153   
O430     O      0.499630000000     0.720840000000     0.458690000000    -0.400218   
O431     O      0.551630000000     0.725380000000     0.998730000000    -0.39932    
O432     O      0.957650000000     0.722510000000     0.010660000000    -0.39567    
O433     O      0.705570000000     0.519890000000     0.498080000000    -0.399066   
O434     O      0.799620000000     0.522490000000     0.509740000000    -0.396869   
O435     O      0.758760000000     0.522310000000     0.457740000000    -0.396692   
O436     O      0.745790000000     0.520110000000     0.050620000000    -0.395381   
O437     O      0.752990000000     0.968720000000     0.050040000000    -0.396127   
O438     O      0.754460000000     0.970600000000     0.456370000000    -0.397107   
O439     O      0.801060000000     0.970980000000     0.004590000000    -0.399203   
O440     O      0.706400000000     0.968190000000     0.001240000000    -0.399008   
O441     O      0.709440000000     0.777040000000     0.486260000000    -0.396635   
O442     O      0.804240000000     0.774750000000     0.488340000000    -0.399277   
O443     O      0.759200000000     0.774870000000     0.440290000000    -0.397666   
O444     O      0.755130000000     0.776780000000     0.033700000000    -0.399865   
O445     O      0.759690000000     0.725070000000     0.034590000000    -0.398897   
O446     O      0.752210000000     0.723450000000     0.441240000000    -0.397015   
O447     O      0.803240000000     0.723070000000     0.985060000000    -0.397251   
O448     O      0.708640000000     0.725510000000     0.991370000000    -0.397904   
O449     O      0.970350000000     0.545870000000     0.739610000000    -0.395281   
O450     O      0.975590000000     0.951650000000     0.742930000000    -0.398552   
O451     O      0.973260000000     0.999200000000     0.788310000000    -0.399409   
O452     O      0.972280000000     0.496230000000     0.694870000000    -0.399232   
O453     O      0.524340000000     0.500400000000     0.694140000000    -0.396607   
O454     O      0.525190000000     0.004620000000     0.787890000000    -0.395451   
O455     O      0.527620000000     0.954440000000     0.742890000000    -0.396763   
O456     O      0.522390000000     0.548340000000     0.738710000000    -0.401927   
O457     O      0.971940000000     0.704930000000     0.749230000000    -0.396934   
O458     O      0.977000000000     0.798790000000     0.754960000000    -0.399974   
O459     O      0.978690000000     0.755560000000     0.705150000000    -0.395305   
O460     O      0.970700000000     0.749990000000     0.798330000000    -0.39895    
O461     O      0.522580000000     0.745230000000     0.802070000000    -0.400281   
O462     O      0.530550000000     0.750940000000     0.709280000000    -0.400264   
O463     O      0.528900000000     0.796140000000     0.758830000000    -0.395326   
O464     O      0.523840000000     0.702070000000     0.752860000000    -0.400576   
O465     O      0.729500000000     0.550220000000     0.755280000000    -0.399441   
O466     O      0.728900000000     0.956290000000     0.749910000000    -0.399336   
O467     O      0.729800000000     0.999820000000     0.799170000000    -0.397123   
O468     O      0.729080000000     0.506840000000     0.705520000000    -0.394952   
O469     O      0.780940000000     0.500940000000     0.705260000000    -0.397444   
O470     O      0.781770000000     0.004780000000     0.798750000000    -0.397964   
O471     O      0.780890000000     0.955860000000     0.753370000000    -0.398607   
O472     O      0.781440000000     0.550210000000     0.751160000000    -0.396958   
O473     O      0.728430000000     0.706010000000     0.736860000000    -0.398073   
O474     O      0.727740000000     0.800350000000     0.738480000000    -0.397423   
O475     O      0.729570000000     0.754750000000     0.691220000000    -0.399248   
O476     O      0.726200000000     0.751550000000     0.784530000000    -0.398738   
O477     O      0.778040000000     0.757450000000     0.786260000000    -0.396594   
O478     O      0.781540000000     0.749880000000     0.692890000000    -0.397471   
O479     O      0.779810000000     0.800400000000     0.736320000000    -0.399744   
O480     O      0.780250000000     0.706490000000     0.742240000000    -0.398679   
O481     O      0.954910000000     0.523830000000     0.985430000000    -0.395      
O482     O      0.549240000000     0.520320000000     0.993690000000    -0.401608   
O483     O      0.507400000000     0.520830000000     0.942610000000    -0.396063   
O484     O      0.999200000000     0.523190000000     0.535960000000    -0.395982   
O485     O      0.995160000000     0.971430000000     0.536930000000    -0.397816   
O486     O      0.502950000000     0.969120000000     0.943670000000    -0.397783   
O487     O      0.547150000000     0.968580000000     0.494830000000    -0.396379   
O488     O      0.952780000000     0.972080000000     0.486320000000    -0.400914   
O489     O      0.955600000000     0.774220000000     0.008120000000    -0.399281   
O490     O      0.549550000000     0.777010000000     0.995110000000    -0.394424   
O491     O      0.495350000000     0.772500000000     0.955690000000    -0.398092   
O492     O      0.007670000000     0.778840000000     0.548150000000    -0.399015   
O493     O      0.011210000000     0.727140000000     0.551260000000    -0.398276   
O494     O      0.499630000000     0.720830000000     0.958690000000    -0.399023   
O495     O      0.551630000000     0.725380000000     0.498730000000    -0.400509   
O496     O      0.957640000000     0.722510000000     0.510660000000    -0.39574    
O497     O      0.705570000000     0.519890000000     0.998080000000    -0.398342   
O498     O      0.799620000000     0.522490000000     0.009740000000    -0.396793   
O499     O      0.758760000000     0.522310000000     0.957740000000    -0.395599   
O500     O      0.745790000000     0.520110000000     0.550620000000    -0.395548   
O501     O      0.752990000000     0.968730000000     0.550040000000    -0.396343   
O502     O      0.754460000000     0.970600000000     0.956380000000    -0.396332   
O503     O      0.801060000000     0.970970000000     0.504590000000    -0.399001   
O504     O      0.706400000000     0.968200000000     0.501240000000    -0.397728   
O505     O      0.709440000000     0.777040000000     0.986260000000    -0.396597   
O506     O      0.804240000000     0.774750000000     0.988330000000    -0.39915    
O507     O      0.759210000000     0.774870000000     0.940290000000    -0.397754   
O508     O      0.755130000000     0.776780000000     0.533700000000    -0.398901   
O509     O      0.759690000000     0.725080000000     0.534580000000    -0.398059   
O510     O      0.752210000000     0.723450000000     0.941250000000    -0.397152   
O511     O      0.803240000000     0.723070000000     0.485060000000    -0.397358   
O512     O      0.708640000000     0.725510000000     0.491370000000    -0.398239   


