data_structure

_audit_creation_method RASPA-1.0
_audit_creation_date 2023-5-19
_audit_author_name 'Poobodin Mano'

_cell_length_a    42.2788
_cell_length_b    43.0963
_cell_length_c    41.8706
_cell_angle_alpha 90
_cell_angle_beta  90
_cell_angle_gamma 90
_cell_volume      76290.7

_symmetry_cell_setting          triclinic
_symmetry_space_group_name_Hall 'P 1'
_symmetry_space_group_name_H-M  'P 1'
_symmetry_Int_Tables_number     1

_symmetry_equiv_pos_as_xyz 'x,y,z'

loop_
_atom_site_label
_atom_site_type_symbol
_atom_site_fract_x
_atom_site_fract_y
_atom_site_fract_z
_atom_site_charge
C1       C      0.995440000000     0.068060000000     0.268440000000     0.405404   
C2       C      0.505970000000     0.444380000000     0.270360000000     0.380679   
C3       C      0.061260000000     0.011830000000     0.278090000000     0.408766   
C4       C      0.437170000000     0.500550000000     0.260250000000     0.409887   
C5       C      0.996550000000     0.197330000000     0.264380000000     0.403493   
C6       C      0.993440000000     0.320240000000     0.254140000000     0.405785   
C7       C      0.003360000000     0.254350000000     0.195870000000     0.402705   
C8       C      0.988620000000     0.264980000000     0.321730000000     0.370208   
C9       C      0.312240000000     0.014320000000     0.269980000000     0.400942   
C10      C      0.186960000000     0.010620000000     0.262750000000     0.409275   
C11      C      0.253540000000     0.004600000000     0.203500000000     0.397852   
C12      C      0.246240000000     0.021430000000     0.329020000000     0.407444   
C13      C      0.259520000000     0.052300000000     0.007460000000     0.369983   
C14      C      0.271250000000     0.429250000000     0.510970000000     0.402457   
C15      C      0.266460000000     0.992630000000     0.072840000000     0.407642   
C16      C      0.264530000000     0.489420000000     0.446000000000     0.407447   
C17      C      0.078700000000     0.228350000000     0.002820000000     0.403647   
C18      C      0.453790000000     0.244550000000     0.505920000000     0.399093   
C19      C      0.017970000000     0.233430000000     0.068430000000     0.400277   
C20      C      0.513860000000     0.239910000000     0.441730000000     0.410984   
C21      C      0.257770000000     0.180010000000     0.021330000000     0.400953   
C22      C      0.272200000000     0.302150000000     0.021480000000     0.394541   
C23      C      0.201750000000     0.246510000000     0.021090000000     0.390697   
C24      C      0.327330000000     0.234960000000     0.020850000000     0.393218   
C25      C      0.404580000000     0.270110000000     0.024680000000    -0.0114476  
C26      C      0.403060000000     0.229740000000     0.481520000000    -0.00471007 
C27      C      0.378440000000     0.252290000000     0.042850000000    -0.0142427  
C28      C      0.378330000000     0.211450000000     0.500200000000    -0.0199334  
C29      C      0.149690000000     0.232520000000     0.044910000000    -0.0138318  
C30      C      0.152530000000     0.262600000000     0.493610000000    -0.0055219  
C31      C      0.126770000000     0.209170000000     0.028970000000    -0.0129858  
C32      C      0.131550000000     0.238340000000     0.477580000000    -0.0187701  
C33      C      0.268670000000     0.352700000000     0.048950000000    -0.0105319  
C34      C      0.299450000000     0.347490000000     0.498170000000    -0.00530448 
C35      C      0.253010000000     0.381990000000     0.036120000000    -0.0114312  
C36      C      0.286370000000     0.378720000000     0.486280000000    -0.0219909  
C37      C      0.275150000000     0.129230000000     0.040480000000    -0.00176696 
C38      C      0.225100000000     0.134600000000     0.009160000000    -0.0149728  
C39      C      0.285440000000     0.102150000000     0.519660000000    -0.013336   
C40      C      0.230520000000     0.101770000000     0.495060000000    -0.0228969  
C41      C      0.288350000000     0.505860000000     0.394470000000    -0.0117906  
C42      C      0.234390000000     0.981790000000     0.396050000000    -0.00377912 
C43      C      0.274500000000     0.534640000000     0.377560000000    -0.0136684  
C44      C      0.220660000000     0.011230000000     0.381280000000    -0.020028   
C45      C      0.241230000000     0.474360000000     0.155050000000    -0.0111792  
C46      C      0.265400000000     0.028030000000     0.151770000000    -0.00599263 
C47      C      0.257440000000     0.466280000000     0.123280000000    -0.010926   
C48      C      0.284890000000     0.017960000000     0.122860000000    -0.0198707  
C49      C      0.030480000000     0.265410000000     0.391850000000    -0.00780389 
C50      C      0.488530000000     0.223500000000     0.391350000000    -0.00331912 
C51      C      0.008710000000     0.286460000000     0.372490000000    -0.0141593  
C52      C      0.466480000000     0.246050000000     0.373400000000    -0.0246488  
C53      C      0.497500000000     0.213590000000     0.119820000000    -0.00993657 
C54      C      0.045010000000     0.248230000000     0.118130000000    -0.00531282 
C55      C      0.482460000000     0.234660000000     0.145220000000    -0.0130515  
C56      C      0.030990000000     0.268730000000     0.144450000000    -0.0168045  
C57      C      0.135620000000     0.033420000000     0.245920000000    -0.00882689 
C58      C      0.137720000000     0.482490000000     0.275200000000    -0.00109875 
C59      C      0.108090000000     0.043540000000     0.267400000000    -0.0100726  
C60      C      0.113690000000     0.494660000000     0.299470000000    -0.0227686  
C61      C      0.363300000000     0.036420000000     0.252730000000    -0.0120043  
C62      C      0.361180000000     0.493030000000     0.293080000000    -0.00295198 
C63      C      0.388530000000     0.018220000000     0.233800000000    -0.0130079  
C64      C      0.385070000000     0.475060000000     0.273220000000    -0.0225816  
C65      C      0.502320000000     0.371190000000     0.228870000000    -0.0111048  
C66      C      0.480030000000     0.366580000000     0.284710000000    -0.00315437 
C67      C      0.023880000000     0.397650000000     0.240250000000    -0.0109095  
C68      C      0.004230000000     0.390840000000     0.295640000000    -0.0214763  
C69      C      0.015990000000     0.150010000000     0.291360000000    -0.0118785  
C70      C      0.468290000000     0.148720000000     0.255460000000    -0.00645152 
C71      C      0.022040000000     0.115550000000     0.283390000000    -0.0130091  
C72      C      0.477770000000     0.116800000000     0.243000000000    -0.0178167  
C73      C      0.995440000000     0.068060000000     0.768440000000     0.405369   
C74      C      0.505970000000     0.444380000000     0.770360000000     0.380656   
C75      C      0.061260000000     0.011830000000     0.778080000000     0.408746   
C76      C      0.437170000000     0.500550000000     0.760250000000     0.409859   
C77      C      0.996550000000     0.197330000000     0.764380000000     0.403464   
C78      C      0.993440000000     0.320240000000     0.754140000000     0.405757   
C79      C      0.003360000000     0.254350000000     0.695870000000     0.402708   
C80      C      0.988620000000     0.264980000000     0.821730000000     0.370187   
C81      C      0.312240000000     0.014320000000     0.769980000000     0.400921   
C82      C      0.186960000000     0.010620000000     0.762750000000     0.409249   
C83      C      0.253540000000     0.004600000000     0.703500000000     0.397828   
C84      C      0.246240000000     0.021430000000     0.829020000000     0.407416   
C85      C      0.259520000000     0.052300000000     0.507460000000     0.370565   
C86      C      0.271250000000     0.429250000000     0.010970000000     0.401438   
C87      C      0.266460000000     0.992630000000     0.572840000000     0.407898   
C88      C      0.264530000000     0.489420000000     0.946000000000     0.406607   
C89      C      0.078700000000     0.228350000000     0.502820000000     0.404595   
C90      C      0.453790000000     0.244550000000     0.005920000000     0.398522   
C91      C      0.017970000000     0.233430000000     0.568430000000     0.400558   
C92      C      0.513860000000     0.239910000000     0.941730000000     0.410169   
C93      C      0.257770000000     0.180010000000     0.521330000000     0.408745   
C94      C      0.272200000000     0.302150000000     0.521480000000     0.401308   
C95      C      0.201750000000     0.246510000000     0.521090000000     0.397554   
C96      C      0.327330000000     0.234960000000     0.520850000000     0.400696   
C97      C      0.404580000000     0.270110000000     0.524680000000    -0.0119283  
C98      C      0.403060000000     0.229740000000     0.981520000000     0.00651535 
C99      C      0.378440000000     0.252290000000     0.542850000000    -0.013223   
C100     C      0.378330000000     0.211450000000     0.000200000000    -0.030495   
C101     C      0.149690000000     0.232520000000     0.544910000000    -0.0134371  
C102     C      0.152530000000     0.262600000000     0.993610000000     0.00482547 
C103     C      0.126770000000     0.209170000000     0.528970000000    -0.0127184  
C104     C      0.131550000000     0.238340000000     0.977590000000    -0.0167597  
C105     C      0.268670000000     0.352700000000     0.548950000000    -0.0101829  
C106     C      0.299450000000     0.347490000000     0.998170000000     0.0051352  
C107     C      0.253010000000     0.381990000000     0.536130000000    -0.0111143  
C108     C      0.286370000000     0.378720000000     0.986280000000    -0.0200449  
C109     C      0.275150000000     0.129230000000     0.540480000000    -0.00249681 
C110     C      0.225100000000     0.134600000000     0.509160000000    -0.0016348  
C111     C      0.285440000000     0.102150000000     0.019660000000    -0.020007   
C112     C      0.230520000000     0.101770000000     0.995060000000    -0.0130205  
C113     C      0.288350000000     0.505860000000     0.894470000000    -0.0118639  
C114     C      0.234390000000     0.981790000000     0.896050000000    -0.00385981 
C115     C      0.274500000000     0.534640000000     0.877560000000    -0.0136501  
C116     C      0.220660000000     0.011230000000     0.881280000000    -0.0199903  
C117     C      0.241230000000     0.474360000000     0.655050000000    -0.0111943  
C118     C      0.265400000000     0.028030000000     0.651770000000    -0.00601    
C119     C      0.257440000000     0.466280000000     0.623280000000    -0.0109183  
C120     C      0.284890000000     0.017960000000     0.622860000000    -0.0198738  
C121     C      0.030480000000     0.265410000000     0.891850000000    -0.00779068 
C122     C      0.488530000000     0.223500000000     0.891350000000    -0.00331366 
C123     C      0.008710000000     0.286460000000     0.872490000000    -0.0141817  
C124     C      0.466480000000     0.246050000000     0.873400000000    -0.0246514  
C125     C      0.497500000000     0.213590000000     0.619820000000    -0.00994899 
C126     C      0.045010000000     0.248230000000     0.618140000000    -0.00531569 
C127     C      0.482460000000     0.234660000000     0.645220000000    -0.01306    
C128     C      0.030990000000     0.268730000000     0.644450000000    -0.0168184  
C129     C      0.135620000000     0.033420000000     0.745920000000    -0.00884832 
C130     C      0.137720000000     0.482490000000     0.775200000000    -0.00112125 
C131     C      0.108090000000     0.043540000000     0.767400000000    -0.0100885  
C132     C      0.113690000000     0.494660000000     0.799470000000    -0.0227767  
C133     C      0.363300000000     0.036420000000     0.752730000000    -0.0120158  
C134     C      0.361180000000     0.493030000000     0.793080000000    -0.00299896 
C135     C      0.388530000000     0.018220000000     0.733800000000    -0.013034   
C136     C      0.385070000000     0.475060000000     0.773220000000    -0.0225568  
C137     C      0.502320000000     0.371190000000     0.728870000000    -0.0111798  
C138     C      0.480030000000     0.366580000000     0.784710000000    -0.00310855 
C139     C      0.023880000000     0.397650000000     0.740250000000    -0.0109063  
C140     C      0.004230000000     0.390840000000     0.795640000000    -0.0214936  
C141     C      0.015990000000     0.150010000000     0.791360000000    -0.011891   
C142     C      0.468290000000     0.148720000000     0.755460000000    -0.00645244 
C143     C      0.022040000000     0.115550000000     0.783390000000    -0.0130084  
C144     C      0.477770000000     0.116800000000     0.743000000000    -0.0178611  
C145     C      0.995440000000     0.568060000000     0.268440000000     0.405645   
C146     C      0.505970000000     0.944370000000     0.270360000000     0.38014    
C147     C      0.061260000000     0.511830000000     0.278090000000     0.409178   
C148     C      0.437170000000     0.000550000000     0.260250000000     0.407152   
C149     C      0.996550000000     0.697330000000     0.264380000000     0.403422   
C150     C      0.993440000000     0.820240000000     0.254140000000     0.405787   
C151     C      0.003360000000     0.754350000000     0.195870000000     0.402721   
C152     C      0.988620000000     0.764980000000     0.321730000000     0.370263   
C153     C      0.312240000000     0.514320000000     0.269980000000     0.404137   
C154     C      0.186960000000     0.510620000000     0.262750000000     0.412608   
C155     C      0.253540000000     0.504600000000     0.203500000000     0.401202   
C156     C      0.246240000000     0.521430000000     0.329020000000     0.410768   
C157     C      0.259520000000     0.552300000000     0.007460000000     0.369624   
C158     C      0.271250000000     0.929250000000     0.510970000000     0.402597   
C159     C      0.266460000000     0.492630000000     0.072840000000     0.407202   
C160     C      0.264530000000     0.989420000000     0.446000000000     0.407866   
C161     C      0.078700000000     0.728350000000     0.002820000000     0.403387   
C162     C      0.453790000000     0.744550000000     0.505920000000     0.399078   
C163     C      0.017970000000     0.733430000000     0.068430000000     0.400263   
C164     C      0.513860000000     0.739910000000     0.441730000000     0.410966   
C165     C      0.257770000000     0.680010000000     0.021330000000     0.400922   
C166     C      0.272200000000     0.802150000000     0.021480000000     0.394594   
C167     C      0.201750000000     0.746510000000     0.021090000000     0.39067    
C168     C      0.327330000000     0.734960000000     0.020850000000     0.39319    
C169     C      0.404580000000     0.770110000000     0.024680000000    -0.0114454  
C170     C      0.403060000000     0.729740000000     0.481520000000    -0.00471363 
C171     C      0.378440000000     0.752290000000     0.042850000000    -0.0142828  
C172     C      0.378330000000     0.711450000000     0.500200000000    -0.0199436  
C173     C      0.149690000000     0.732520000000     0.044910000000    -0.0138746  
C174     C      0.152530000000     0.762610000000     0.493610000000    -0.00557895 
C175     C      0.126770000000     0.709170000000     0.028970000000    -0.0129933  
C176     C      0.131550000000     0.738340000000     0.477580000000    -0.0187577  
C177     C      0.268670000000     0.852700000000     0.048950000000    -0.0105369  
C178     C      0.299450000000     0.847490000000     0.498170000000    -0.00531759 
C179     C      0.253010000000     0.881990000000     0.036120000000    -0.0114261  
C180     C      0.286370000000     0.878720000000     0.486280000000    -0.0219822  
C181     C      0.275150000000     0.629230000000     0.040480000000    -0.00174353 
C182     C      0.225100000000     0.634600000000     0.009160000000    -0.0150107  
C183     C      0.285440000000     0.602150000000     0.519660000000    -0.0133722  
C184     C      0.230520000000     0.601770000000     0.495060000000    -0.0229416  
C185     C      0.288350000000     0.005860000000     0.394470000000    -0.0171039  
C186     C      0.234390000000     0.481790000000     0.396050000000    -0.00628332 
C187     C      0.274500000000     0.034640000000     0.377560000000    -0.0127671  
C188     C      0.220660000000     0.511230000000     0.381280000000    -0.0178189  
C189     C      0.241230000000     0.974360000000     0.155050000000    -0.00911521 
C190     C      0.265400000000     0.528030000000     0.151770000000    -0.00612689 
C191     C      0.257440000000     0.966280000000     0.123280000000    -0.0111771  
C192     C      0.284890000000     0.517960000000     0.122860000000    -0.0178902  
C193     C      0.030480000000     0.765410000000     0.391850000000    -0.00782361 
C194     C      0.488530000000     0.723500000000     0.391350000000    -0.00329775 
C195     C      0.008710000000     0.786460000000     0.372490000000    -0.0141258  
C196     C      0.466480000000     0.746040000000     0.373400000000    -0.0247321  
C197     C      0.497500000000     0.713590000000     0.119820000000    -0.00993986 
C198     C      0.045010000000     0.748230000000     0.118130000000    -0.00532615 
C199     C      0.482460000000     0.734660000000     0.145220000000    -0.0130871  
C200     C      0.030990000000     0.768730000000     0.144450000000    -0.0167933  
C201     C      0.135620000000     0.533420000000     0.245920000000    -0.00857208 
C202     C      0.137720000000     0.982490000000     0.275200000000    -0.000191278
C203     C      0.108090000000     0.543540000000     0.267400000000    -0.010018   
C204     C      0.113690000000     0.994660000000     0.299470000000    -0.0181756  
C205     C      0.363300000000     0.536420000000     0.252730000000    -0.0123892  
C206     C      0.361180000000     0.993030000000     0.293080000000     0.00254069 
C207     C      0.388530000000     0.518220000000     0.233800000000    -0.0107298  
C208     C      0.385070000000     0.975060000000     0.273220000000    -0.0235721  
C209     C      0.502320000000     0.871190000000     0.228870000000    -0.0111076  
C210     C      0.480030000000     0.866580000000     0.284710000000    -0.00313752 
C211     C      0.023880000000     0.897650000000     0.240250000000    -0.010931   
C212     C      0.004230000000     0.890840000000     0.295640000000    -0.0215343  
C213     C      0.015990000000     0.650010000000     0.291360000000    -0.0118821  
C214     C      0.468290000000     0.648720000000     0.255460000000    -0.00646913 
C215     C      0.022040000000     0.615550000000     0.283390000000    -0.0130105  
C216     C      0.477770000000     0.616800000000     0.243000000000    -0.0178035  
C217     C      0.995440000000     0.568060000000     0.768440000000     0.405611   
C218     C      0.505970000000     0.944370000000     0.770360000000     0.380115   
C219     C      0.061260000000     0.511830000000     0.778080000000     0.40916    
C220     C      0.437170000000     0.000550000000     0.760250000000     0.407113   
C221     C      0.996550000000     0.697330000000     0.764380000000     0.403393   
C222     C      0.993440000000     0.820240000000     0.754140000000     0.405758   
C223     C      0.003360000000     0.754350000000     0.695870000000     0.402724   
C224     C      0.988620000000     0.764980000000     0.821730000000     0.370242   
C225     C      0.312240000000     0.514320000000     0.769980000000     0.40413    
C226     C      0.186960000000     0.510620000000     0.762750000000     0.412598   
C227     C      0.253540000000     0.504600000000     0.703500000000     0.401195   
C228     C      0.246240000000     0.521430000000     0.829020000000     0.410752   
C229     C      0.259520000000     0.552300000000     0.507460000000     0.370204   
C230     C      0.271250000000     0.929250000000     0.010970000000     0.401575   
C231     C      0.266460000000     0.492630000000     0.572840000000     0.407456   
C232     C      0.264530000000     0.989420000000     0.946000000000     0.407025   
C233     C      0.078700000000     0.728350000000     0.502820000000     0.404338   
C234     C      0.453790000000     0.744550000000     0.005920000000     0.398505   
C235     C      0.017970000000     0.733430000000     0.568430000000     0.400544   
C236     C      0.513860000000     0.739910000000     0.941730000000     0.41015    
C237     C      0.257770000000     0.680010000000     0.521330000000     0.408734   
C238     C      0.272200000000     0.802150000000     0.521480000000     0.401373   
C239     C      0.201750000000     0.746510000000     0.521090000000     0.397541   
C240     C      0.327330000000     0.734960000000     0.520850000000     0.400684   
C241     C      0.404580000000     0.770110000000     0.524680000000    -0.0119273  
C242     C      0.403060000000     0.729740000000     0.981520000000     0.00653629 
C243     C      0.378440000000     0.752290000000     0.542850000000    -0.0132607  
C244     C      0.378330000000     0.711450000000     0.000200000000    -0.0305303  
C245     C      0.149690000000     0.732520000000     0.544910000000    -0.0134789  
C246     C      0.152530000000     0.762610000000     0.993610000000     0.00479096 
C247     C      0.126770000000     0.709170000000     0.528970000000    -0.0127258  
C248     C      0.131550000000     0.738340000000     0.977590000000    -0.0167419  
C249     C      0.268670000000     0.852700000000     0.548950000000    -0.0101875  
C250     C      0.299450000000     0.847490000000     0.998170000000     0.00513178 
C251     C      0.253010000000     0.881990000000     0.536130000000    -0.0111089  
C252     C      0.286370000000     0.878720000000     0.986280000000    -0.0200365  
C253     C      0.275150000000     0.629230000000     0.540480000000    -0.00247643 
C254     C      0.225100000000     0.634600000000     0.509160000000    -0.00162639 
C255     C      0.285440000000     0.602150000000     0.019660000000    -0.0200678  
C256     C      0.230520000000     0.601770000000     0.995060000000    -0.0130287  
C257     C      0.288350000000     0.005860000000     0.894470000000    -0.0171987  
C258     C      0.234390000000     0.481790000000     0.896050000000    -0.00637118 
C259     C      0.274500000000     0.034640000000     0.877560000000    -0.0127448  
C260     C      0.220660000000     0.511230000000     0.881280000000    -0.0177736  
C261     C      0.241230000000     0.974360000000     0.655050000000    -0.00911961 
C262     C      0.265400000000     0.528030000000     0.651770000000    -0.00614543 
C263     C      0.257440000000     0.966280000000     0.623280000000    -0.0111709  
C264     C      0.284890000000     0.517960000000     0.622860000000    -0.0178806  
C265     C      0.030480000000     0.765410000000     0.891850000000    -0.00781041 
C266     C      0.488530000000     0.723500000000     0.891350000000    -0.00329247 
C267     C      0.008710000000     0.786460000000     0.872490000000    -0.0141483  
C268     C      0.466480000000     0.746040000000     0.873400000000    -0.0247346  
C269     C      0.497500000000     0.713590000000     0.619820000000    -0.00995244 
C270     C      0.045010000000     0.748230000000     0.618140000000    -0.00532906 
C271     C      0.482460000000     0.734660000000     0.645220000000    -0.0130955  
C272     C      0.030990000000     0.768730000000     0.644450000000    -0.0168073  
C273     C      0.135620000000     0.533420000000     0.745920000000    -0.00859264 
C274     C      0.137720000000     0.982490000000     0.775200000000    -0.000210119
C275     C      0.108090000000     0.543540000000     0.767400000000    -0.0100336  
C276     C      0.113690000000     0.994660000000     0.799470000000    -0.0181679  
C277     C      0.363300000000     0.536420000000     0.752730000000    -0.0124021  
C278     C      0.361180000000     0.993030000000     0.793080000000     0.00251345 
C279     C      0.388530000000     0.518220000000     0.733800000000    -0.0107465  
C280     C      0.385070000000     0.975060000000     0.773220000000    -0.0235511  
C281     C      0.502320000000     0.871190000000     0.728870000000    -0.0111825  
C282     C      0.480030000000     0.866580000000     0.784710000000    -0.00309164 
C283     C      0.023880000000     0.897650000000     0.740250000000    -0.0109279  
C284     C      0.004230000000     0.890840000000     0.795640000000    -0.0215518  
C285     C      0.015990000000     0.650010000000     0.791360000000    -0.0118946  
C286     C      0.468290000000     0.648720000000     0.755460000000    -0.0064701  
C287     C      0.022040000000     0.615550000000     0.783390000000    -0.0130098  
C288     C      0.477770000000     0.616800000000     0.743000000000    -0.0178479  
C289     C      0.495440000000     0.068060000000     0.268440000000     0.405376   
C290     C      0.005970000000     0.444380000000     0.270360000000     0.379166   
C291     C      0.561260000000     0.011830000000     0.278090000000     0.408741   
C292     C      0.937170000000     0.500550000000     0.260250000000     0.409775   
C293     C      0.496550000000     0.197330000000     0.264380000000     0.40219    
C294     C      0.493440000000     0.320240000000     0.254140000000     0.404485   
C295     C      0.503360000000     0.254350000000     0.195870000000     0.403909   
C296     C      0.488620000000     0.264980000000     0.321730000000     0.369006   
C297     C      0.812240000000     0.014320000000     0.269980000000     0.400945   
C298     C      0.686950000000     0.010620000000     0.262750000000     0.409189   
C299     C      0.753540000000     0.004600000000     0.203500000000     0.397858   
C300     C      0.746240000000     0.021430000000     0.329020000000     0.407444   
C301     C      0.759520000000     0.052300000000     0.007460000000     0.369983   
C302     C      0.771250000000     0.429250000000     0.510970000000     0.402441   
C303     C      0.766460000000     0.992630000000     0.072840000000     0.407634   
C304     C      0.764530000000     0.489420000000     0.446000000000     0.40744    
C305     C      0.578700000000     0.228350000000     0.002820000000     0.403692   
C306     C      0.953790000000     0.244550000000     0.505920000000     0.398964   
C307     C      0.517970000000     0.233430000000     0.068430000000     0.400437   
C308     C      0.013860000000     0.239910000000     0.441730000000     0.410885   
C309     C      0.757770000000     0.180010000000     0.021330000000     0.400962   
C310     C      0.772200000000     0.302150000000     0.021480000000     0.394555   
C311     C      0.701750000000     0.246510000000     0.021090000000     0.390706   
C312     C      0.827330000000     0.234960000000     0.020850000000     0.393351   
C313     C      0.904580000000     0.270110000000     0.024680000000    -0.0114693  
C314     C      0.903060000000     0.229740000000     0.481520000000    -0.00471863 
C315     C      0.878440000000     0.252290000000     0.042850000000    -0.0142155  
C316     C      0.878330000000     0.211450000000     0.500200000000    -0.0199324  
C317     C      0.649690000000     0.232520000000     0.044910000000    -0.0138335  
C318     C      0.652530000000     0.262600000000     0.493610000000    -0.00552839 
C319     C      0.626770000000     0.209170000000     0.028970000000    -0.0129878  
C320     C      0.631550000000     0.238340000000     0.477580000000    -0.0187657  
C321     C      0.768670000000     0.352700000000     0.048950000000    -0.010517   
C322     C      0.799450000000     0.347490000000     0.498170000000    -0.00531739 
C323     C      0.753010000000     0.381990000000     0.036120000000    -0.0114788  
C324     C      0.786370000000     0.378720000000     0.486280000000    -0.0219685  
C325     C      0.775160000000     0.129230000000     0.040480000000    -0.00190047 
C326     C      0.725100000000     0.134600000000     0.009160000000    -0.0149617  
C327     C      0.785430000000     0.102150000000     0.519660000000    -0.0131732  
C328     C      0.730520000000     0.101770000000     0.495060000000    -0.022894   
C329     C      0.788350000000     0.505860000000     0.394470000000    -0.0117964  
C330     C      0.734390000000     0.981790000000     0.396050000000    -0.00378398 
C331     C      0.774500000000     0.534640000000     0.377560000000    -0.0136688  
C332     C      0.720660000000     0.011230000000     0.381280000000    -0.0200276  
C333     C      0.741230000000     0.474360000000     0.155050000000    -0.011131   
C334     C      0.765400000000     0.028030000000     0.151770000000    -0.00595834 
C335     C      0.757440000000     0.466280000000     0.123280000000    -0.0109461  
C336     C      0.784900000000     0.017960000000     0.122860000000    -0.0199569  
C337     C      0.530480000000     0.265410000000     0.391850000000    -0.0083062  
C338     C      0.988530000000     0.223500000000     0.391350000000    -0.00128344 
C339     C      0.508710000000     0.286460000000     0.372490000000    -0.0121533  
C340     C      0.966480000000     0.246050000000     0.373400000000    -0.0250023  
C341     C      0.997500000000     0.213590000000     0.119820000000    -0.0079498  
C342     C      0.545010000000     0.248230000000     0.118130000000    -0.00534644 
C343     C      0.982460000000     0.234660000000     0.145220000000    -0.0128133  
C344     C      0.530990000000     0.268730000000     0.144450000000    -0.0166938  
C345     C      0.635620000000     0.033420000000     0.245920000000    -0.00881576 
C346     C      0.637710000000     0.482490000000     0.275200000000    -0.00110278 
C347     C      0.608090000000     0.043540000000     0.267400000000    -0.010076   
C348     C      0.613690000000     0.494660000000     0.299470000000    -0.0227713  
C349     C      0.863300000000     0.036420000000     0.252730000000    -0.0119838  
C350     C      0.861180000000     0.493030000000     0.293080000000    -0.00292883 
C351     C      0.888530000000     0.018220000000     0.233800000000    -0.0130201  
C352     C      0.885070000000     0.475060000000     0.273220000000    -0.0226087  
C353     C      0.002320000000     0.371190000000     0.228870000000    -0.0129213  
C354     C      0.980030000000     0.366580000000     0.284710000000    -0.00181876 
C355     C      0.523880000000     0.397650000000     0.240250000000    -0.0112079  
C356     C      0.504230000000     0.390840000000     0.295640000000    -0.019398   
C357     C      0.515990000000     0.150010000000     0.291360000000    -0.0113235  
C358     C      0.968290000000     0.148720000000     0.255460000000    -0.00631571 
C359     C      0.522040000000     0.115550000000     0.283390000000    -0.0123426  
C360     C      0.977770000000     0.116800000000     0.243000000000    -0.0177995  
C361     C      0.495440000000     0.068060000000     0.768440000000     0.405343   
C362     C      0.005970000000     0.444380000000     0.770360000000     0.379161   
C363     C      0.561260000000     0.011830000000     0.778080000000     0.408721   
C364     C      0.937170000000     0.500550000000     0.760250000000     0.409748   
C365     C      0.496550000000     0.197330000000     0.764380000000     0.402177   
C366     C      0.493440000000     0.320240000000     0.754140000000     0.404472   
C367     C      0.503360000000     0.254350000000     0.695870000000     0.403901   
C368     C      0.488620000000     0.264980000000     0.821730000000     0.369001   
C369     C      0.812240000000     0.014320000000     0.769980000000     0.400925   
C370     C      0.686950000000     0.010620000000     0.762750000000     0.409164   
C371     C      0.753540000000     0.004600000000     0.703500000000     0.397834   
C372     C      0.746240000000     0.021430000000     0.829020000000     0.407417   
C373     C      0.759520000000     0.052300000000     0.507460000000     0.370564   
C374     C      0.771250000000     0.429250000000     0.010970000000     0.401423   
C375     C      0.766460000000     0.992630000000     0.572840000000     0.40789    
C376     C      0.764530000000     0.489420000000     0.946000000000     0.406602   
C377     C      0.578700000000     0.228350000000     0.502820000000     0.40464    
C378     C      0.953790000000     0.244550000000     0.005920000000     0.398392   
C379     C      0.517970000000     0.233430000000     0.568430000000     0.400717   
C380     C      0.013860000000     0.239910000000     0.941730000000     0.41007    
C381     C      0.757770000000     0.180010000000     0.521330000000     0.408739   
C382     C      0.772200000000     0.302150000000     0.521480000000     0.401308   
C383     C      0.701750000000     0.246510000000     0.521090000000     0.397553   
C384     C      0.827330000000     0.234960000000     0.520850000000     0.400809   
C385     C      0.904580000000     0.270110000000     0.524680000000    -0.011948   
C386     C      0.903060000000     0.229740000000     0.981520000000     0.00646197 
C387     C      0.878440000000     0.252290000000     0.542850000000    -0.0131997  
C388     C      0.878330000000     0.211450000000     0.000200000000    -0.0304551  
C389     C      0.649690000000     0.232520000000     0.544910000000    -0.0134393  
C390     C      0.652530000000     0.262600000000     0.993610000000     0.00481071 
C391     C      0.626770000000     0.209170000000     0.528970000000    -0.0127206  
C392     C      0.631550000000     0.238340000000     0.977590000000    -0.016755   
C393     C      0.768670000000     0.352700000000     0.548950000000    -0.0101685  
C394     C      0.799450000000     0.347490000000     0.998170000000     0.00509424 
C395     C      0.753010000000     0.381990000000     0.536130000000    -0.0111626  
C396     C      0.786370000000     0.378720000000     0.986280000000    -0.0200255  
C397     C      0.775160000000     0.129230000000     0.540480000000    -0.00262699 
C398     C      0.725100000000     0.134600000000     0.509160000000    -0.00164511 
C399     C      0.785430000000     0.102150000000     0.019660000000    -0.0198221  
C400     C      0.730520000000     0.101770000000     0.995060000000    -0.0130353  
C401     C      0.788350000000     0.505860000000     0.894470000000    -0.0118694  
C402     C      0.734390000000     0.981790000000     0.896050000000    -0.00386451 
C403     C      0.774500000000     0.534640000000     0.877560000000    -0.0136506  
C404     C      0.720660000000     0.011230000000     0.881280000000    -0.0199899  
C405     C      0.741230000000     0.474360000000     0.655050000000    -0.011146   
C406     C      0.765400000000     0.028030000000     0.651770000000    -0.0059757  
C407     C      0.757440000000     0.466280000000     0.623280000000    -0.0109384  
C408     C      0.784900000000     0.017960000000     0.622860000000    -0.0199599  
C409     C      0.530480000000     0.265410000000     0.891850000000    -0.00828541 
C410     C      0.988530000000     0.223500000000     0.891350000000    -0.00130959 
C411     C      0.508710000000     0.286460000000     0.872490000000    -0.0122042  
C412     C      0.966480000000     0.246050000000     0.873400000000    -0.0249991  
C413     C      0.997500000000     0.213590000000     0.619820000000    -0.00798235 
C414     C      0.545010000000     0.248230000000     0.618140000000    -0.00534898 
C415     C      0.982460000000     0.234660000000     0.645220000000    -0.0128245  
C416     C      0.530990000000     0.268730000000     0.644450000000    -0.0167088  
C417     C      0.635620000000     0.033420000000     0.745920000000    -0.00883721 
C418     C      0.637710000000     0.482490000000     0.775200000000    -0.00112528 
C419     C      0.608090000000     0.043540000000     0.767400000000    -0.0100919  
C420     C      0.613690000000     0.494660000000     0.799470000000    -0.0227794  
C421     C      0.863300000000     0.036420000000     0.752730000000    -0.0119952  
C422     C      0.861180000000     0.493030000000     0.793080000000    -0.00297549 
C423     C      0.888530000000     0.018220000000     0.733800000000    -0.013046   
C424     C      0.885070000000     0.475060000000     0.773220000000    -0.0225841  
C425     C      0.002320000000     0.371190000000     0.728870000000    -0.0129781  
C426     C      0.980030000000     0.366580000000     0.784710000000    -0.00178926 
C427     C      0.523880000000     0.397650000000     0.740250000000    -0.0112017  
C428     C      0.504230000000     0.390840000000     0.795640000000    -0.0194402  
C429     C      0.515990000000     0.150010000000     0.791360000000    -0.011342   
C430     C      0.968290000000     0.148720000000     0.755460000000    -0.00631825 
C431     C      0.522040000000     0.115550000000     0.783390000000    -0.0123492  
C432     C      0.977770000000     0.116800000000     0.743000000000    -0.0178442  
C433     C      0.495440000000     0.568060000000     0.268440000000     0.405618   
C434     C      0.005970000000     0.944370000000     0.270360000000     0.378637   
C435     C      0.561260000000     0.511830000000     0.278090000000     0.409154   
C436     C      0.937170000000     0.000550000000     0.260250000000     0.407049   
C437     C      0.496550000000     0.697330000000     0.264380000000     0.402122   
C438     C      0.493440000000     0.820240000000     0.254140000000     0.404491   
C439     C      0.503360000000     0.754350000000     0.195870000000     0.403924   
C440     C      0.488620000000     0.764980000000     0.321730000000     0.369065   
C441     C      0.812240000000     0.514320000000     0.269980000000     0.404136   
C442     C      0.686950000000     0.510620000000     0.262750000000     0.412521   
C443     C      0.753540000000     0.504600000000     0.203500000000     0.401205   
C444     C      0.746240000000     0.521430000000     0.329020000000     0.410766   
C445     C      0.759520000000     0.552300000000     0.007460000000     0.369625   
C446     C      0.771250000000     0.929250000000     0.510970000000     0.40258    
C447     C      0.766460000000     0.492630000000     0.072840000000     0.407195   
C448     C      0.764530000000     0.989420000000     0.446000000000     0.407859   
C449     C      0.578700000000     0.728350000000     0.002820000000     0.403432   
C450     C      0.953790000000     0.744550000000     0.505920000000     0.398948   
C451     C      0.517970000000     0.733430000000     0.068430000000     0.400423   
C452     C      0.013860000000     0.739910000000     0.441730000000     0.410867   
C453     C      0.757770000000     0.680010000000     0.021330000000     0.400931   
C454     C      0.772200000000     0.802150000000     0.021480000000     0.394608   
C455     C      0.701750000000     0.746510000000     0.021090000000     0.390679   
C456     C      0.827330000000     0.734960000000     0.020850000000     0.393323   
C457     C      0.904580000000     0.770110000000     0.024680000000    -0.011467   
C458     C      0.903060000000     0.729740000000     0.481520000000    -0.00472215 
C459     C      0.878440000000     0.752290000000     0.042850000000    -0.0142556  
C460     C      0.878330000000     0.711450000000     0.500200000000    -0.0199426  
C461     C      0.649690000000     0.732520000000     0.044910000000    -0.0138763  
C462     C      0.652530000000     0.762610000000     0.493610000000    -0.00558546 
C463     C      0.626770000000     0.709170000000     0.028970000000    -0.0129954  
C464     C      0.631550000000     0.738340000000     0.477580000000    -0.0187533  
C465     C      0.768670000000     0.852700000000     0.048950000000    -0.0105219  
C466     C      0.799450000000     0.847490000000     0.498170000000    -0.00533041 
C467     C      0.753010000000     0.881990000000     0.036120000000    -0.0114738  
C468     C      0.786370000000     0.878720000000     0.486280000000    -0.0219598  
C469     C      0.775160000000     0.629230000000     0.040480000000    -0.00187702 
C470     C      0.725100000000     0.634600000000     0.009160000000    -0.0149996  
C471     C      0.785430000000     0.602150000000     0.519660000000    -0.0132093  
C472     C      0.730520000000     0.601770000000     0.495060000000    -0.0229387  
C473     C      0.788350000000     0.005860000000     0.394470000000    -0.017103   
C474     C      0.734390000000     0.481790000000     0.396050000000    -0.00628702 
C475     C      0.774500000000     0.034640000000     0.377560000000    -0.0127689  
C476     C      0.720660000000     0.511230000000     0.381280000000    -0.0178198  
C477     C      0.741230000000     0.974360000000     0.155050000000    -0.00906931 
C478     C      0.765400000000     0.528030000000     0.151770000000    -0.0060917  
C479     C      0.757440000000     0.966280000000     0.123280000000    -0.0111969  
C480     C      0.784900000000     0.517960000000     0.122860000000    -0.0179789  
C481     C      0.530480000000     0.765410000000     0.391850000000    -0.00832479 
C482     C      0.988530000000     0.723500000000     0.391350000000    -0.00126584 
C483     C      0.508710000000     0.786460000000     0.372490000000    -0.0121241  
C484     C      0.966480000000     0.746040000000     0.373400000000    -0.0250851  
C485     C      0.997500000000     0.713590000000     0.119820000000    -0.00795705 
C486     C      0.545010000000     0.748230000000     0.118130000000    -0.00535973 
C487     C      0.982460000000     0.734660000000     0.145220000000    -0.0128498  
C488     C      0.530990000000     0.768730000000     0.144450000000    -0.0166828  
C489     C      0.635620000000     0.533420000000     0.245920000000    -0.00856062 
C490     C      0.637710000000     0.982490000000     0.275200000000    -0.000197279
C491     C      0.608090000000     0.543540000000     0.267400000000    -0.0100215  
C492     C      0.613690000000     0.994660000000     0.299470000000    -0.0181725  
C493     C      0.863300000000     0.536420000000     0.252730000000    -0.0123671  
C494     C      0.861180000000     0.993030000000     0.293080000000     0.00254871 
C495     C      0.888530000000     0.518220000000     0.233800000000    -0.0107492  
C496     C      0.885070000000     0.975060000000     0.273220000000    -0.0235967  
C497     C      0.002320000000     0.871190000000     0.228870000000    -0.0129183  
C498     C      0.980030000000     0.866580000000     0.284710000000    -0.00180747 
C499     C      0.523880000000     0.897650000000     0.240250000000    -0.0112285  
C500     C      0.504230000000     0.890840000000     0.295640000000    -0.0194642  
C501     C      0.515990000000     0.650010000000     0.291360000000    -0.0113276  
C502     C      0.968290000000     0.648720000000     0.255460000000    -0.00633361 
C503     C      0.522040000000     0.615550000000     0.283390000000    -0.0123442  
C504     C      0.977770000000     0.616800000000     0.243000000000    -0.0177862  
C505     C      0.495440000000     0.568060000000     0.768440000000     0.405585   
C506     C      0.005970000000     0.944370000000     0.770360000000     0.37863    
C507     C      0.561260000000     0.511830000000     0.778080000000     0.409137   
C508     C      0.937170000000     0.000550000000     0.760250000000     0.40701    
C509     C      0.496550000000     0.697330000000     0.764380000000     0.40211    
C510     C      0.493440000000     0.820240000000     0.754140000000     0.404478   
C511     C      0.503360000000     0.754350000000     0.695870000000     0.403916   
C512     C      0.488620000000     0.764980000000     0.821730000000     0.36906    
C513     C      0.812240000000     0.514320000000     0.769980000000     0.404129   
C514     C      0.686950000000     0.510620000000     0.762750000000     0.41251    
C515     C      0.753540000000     0.504600000000     0.703500000000     0.401198   
C516     C      0.746240000000     0.521430000000     0.829020000000     0.410751   
C517     C      0.759520000000     0.552300000000     0.507460000000     0.370204   
C518     C      0.771250000000     0.929250000000     0.010970000000     0.401561   
C519     C      0.766460000000     0.492630000000     0.572840000000     0.407448   
C520     C      0.764530000000     0.989420000000     0.946000000000     0.40702    
C521     C      0.578700000000     0.728350000000     0.502820000000     0.404382   
C522     C      0.953790000000     0.744550000000     0.005920000000     0.398376   
C523     C      0.517970000000     0.733430000000     0.568430000000     0.400704   
C524     C      0.013860000000     0.739910000000     0.941730000000     0.41005    
C525     C      0.757770000000     0.680010000000     0.521330000000     0.408728   
C526     C      0.772200000000     0.802150000000     0.521480000000     0.401373   
C527     C      0.701750000000     0.746510000000     0.521090000000     0.397539   
C528     C      0.827330000000     0.734960000000     0.520850000000     0.400797   
C529     C      0.904580000000     0.770110000000     0.524680000000    -0.0119469  
C530     C      0.903060000000     0.729740000000     0.981520000000     0.0064829  
C531     C      0.878440000000     0.752290000000     0.542850000000    -0.0132375  
C532     C      0.878330000000     0.711450000000     0.000200000000    -0.0304904  
C533     C      0.649690000000     0.732520000000     0.544910000000    -0.013481   
C534     C      0.652530000000     0.762610000000     0.993610000000     0.00477621 
C535     C      0.626770000000     0.709170000000     0.528970000000    -0.012728   
C536     C      0.631550000000     0.738340000000     0.977590000000    -0.0167372  
C537     C      0.768670000000     0.852700000000     0.548950000000    -0.010173   
C538     C      0.799450000000     0.847490000000     0.998170000000     0.00509093 
C539     C      0.753010000000     0.881990000000     0.536130000000    -0.0111572  
C540     C      0.786370000000     0.878720000000     0.986280000000    -0.0200171  
C541     C      0.775160000000     0.629230000000     0.540480000000    -0.00260659 
C542     C      0.725100000000     0.634600000000     0.509160000000    -0.00163671 
C543     C      0.785430000000     0.602150000000     0.019660000000    -0.0198828  
C544     C      0.730520000000     0.601770000000     0.995060000000    -0.0130436  
C545     C      0.788350000000     0.005860000000     0.894470000000    -0.0171976  
C546     C      0.734390000000     0.481790000000     0.896050000000    -0.00637473 
C547     C      0.774500000000     0.034640000000     0.877560000000    -0.0127465  
C548     C      0.720660000000     0.511230000000     0.881280000000    -0.0177745  
C549     C      0.741230000000     0.974360000000     0.655050000000    -0.00907367 
C550     C      0.765400000000     0.528030000000     0.651770000000    -0.00611023 
C551     C      0.757440000000     0.966280000000     0.623280000000    -0.0111907  
C552     C      0.784900000000     0.517960000000     0.622860000000    -0.0179693  
C553     C      0.530480000000     0.765410000000     0.891850000000    -0.00830402 
C554     C      0.988530000000     0.723500000000     0.891350000000    -0.00129216 
C555     C      0.508710000000     0.786460000000     0.872490000000    -0.0121751  
C556     C      0.966480000000     0.746040000000     0.873400000000    -0.0250817  
C557     C      0.997500000000     0.713590000000     0.619820000000    -0.00798977 
C558     C      0.545010000000     0.748230000000     0.618140000000    -0.00536232 
C559     C      0.982460000000     0.734660000000     0.645220000000    -0.012861   
C560     C      0.530990000000     0.768730000000     0.644450000000    -0.0166979  
C561     C      0.635620000000     0.533420000000     0.745920000000    -0.0085812  
C562     C      0.637710000000     0.982490000000     0.775200000000    -0.00021613 
C563     C      0.608090000000     0.543540000000     0.767400000000    -0.010037   
C564     C      0.613690000000     0.994660000000     0.799470000000    -0.0181648  
C565     C      0.863300000000     0.536420000000     0.752730000000    -0.0123799  
C566     C      0.861180000000     0.993030000000     0.793080000000     0.00252177 
C567     C      0.888530000000     0.518220000000     0.733800000000    -0.0107657  
C568     C      0.885070000000     0.975060000000     0.773220000000    -0.0235758  
C569     C      0.002320000000     0.871190000000     0.728870000000    -0.0129752  
C570     C      0.980030000000     0.866580000000     0.784710000000    -0.00177787 
C571     C      0.523880000000     0.897650000000     0.740250000000    -0.0112223  
C572     C      0.504230000000     0.890840000000     0.795640000000    -0.0195066  
C573     C      0.515990000000     0.650010000000     0.791360000000    -0.0113461  
C574     C      0.968290000000     0.648720000000     0.755460000000    -0.0063362  
C575     C      0.522040000000     0.615550000000     0.783390000000    -0.0123508  
C576     C      0.977770000000     0.616800000000     0.743000000000    -0.0178309  
Cu1      Cu     0.995520000000     0.505740000000     0.298380000000     0.855579   
Cu2      Cu     0.503200000000     0.006970000000     0.240090000000     0.855593   
Cu3      Cu     0.466800000000     0.257460000000     0.255760000000     0.844737   
Cu4      Cu     0.024520000000     0.260260000000     0.262040000000     0.85238    
Cu5      Cu     0.249920000000     0.484350000000     0.270640000000     0.868073   
Cu6      Cu     0.249440000000     0.041150000000     0.262040000000     0.859317   
Cu7      Cu     0.236610000000     0.487870000000     0.009910000000     0.838532   
Cu8      Cu     0.294470000000     0.993330000000     0.508930000000     0.876919   
Cu9      Cu     0.520560000000     0.264800000000     0.006490000000     0.854899   
Cu10     Cu     0.011860000000     0.208230000000     0.503680000000     0.850091   
Cu11     Cu     0.264730000000     0.241040000000     0.050520000000     0.834355   
Cu12     Cu     0.264410000000     0.241090000000     0.491910000000     0.868674   
Cu13     Cu     0.995520000000     0.505740000000     0.798380000000     0.855784   
Cu14     Cu     0.503200000000     0.006970000000     0.740090000000     0.855685   
Cu15     Cu     0.466800000000     0.257460000000     0.755760000000     0.844679   
Cu16     Cu     0.024520000000     0.260260000000     0.762040000000     0.852349   
Cu17     Cu     0.249920000000     0.484350000000     0.770640000000     0.868044   
Cu18     Cu     0.249440000000     0.041150000000     0.762040000000     0.859245   
Cu19     Cu     0.236610000000     0.487870000000     0.509910000000     0.843824   
Cu20     Cu     0.294470000000     0.993330000000     0.008930000000     0.871509   
Cu21     Cu     0.520560000000     0.264800000000     0.506490000000     0.86014    
Cu22     Cu     0.011860000000     0.208230000000     0.003680000000     0.8448     
Cu23     Cu     0.264730000000     0.241040000000     0.550520000000     0.840526   
Cu24     Cu     0.264410000000     0.241090000000     0.991910000000     0.872164   
Cu25     Cu     0.995520000000     0.005740000000     0.298380000000     0.852704   
Cu26     Cu     0.503200000000     0.506970000000     0.240090000000     0.857911   
Cu27     Cu     0.466800000000     0.757460000000     0.255760000000     0.844871   
Cu28     Cu     0.024520000000     0.760260000000     0.262040000000     0.852332   
Cu29     Cu     0.249920000000     0.984350000000     0.270640000000     0.869689   
Cu30     Cu     0.249440000000     0.541150000000     0.262040000000     0.862194   
Cu31     Cu     0.236610000000     0.987870000000     0.009910000000     0.841153   
Cu32     Cu     0.294470000000     0.493330000000     0.508930000000     0.874193   
Cu33     Cu     0.520560000000     0.764800000000     0.006490000000     0.854934   
Cu34     Cu     0.011860000000     0.708230000000     0.503680000000     0.850168   
Cu35     Cu     0.264730000000     0.741040000000     0.050520000000     0.834193   
Cu36     Cu     0.264410000000     0.741090000000     0.491910000000     0.868658   
Cu37     Cu     0.995520000000     0.005740000000     0.798380000000     0.852896   
Cu38     Cu     0.503200000000     0.506970000000     0.740090000000     0.858018   
Cu39     Cu     0.466800000000     0.757460000000     0.755760000000     0.844813   
Cu40     Cu     0.024520000000     0.760260000000     0.762040000000     0.852301   
Cu41     Cu     0.249920000000     0.984350000000     0.770640000000     0.869665   
Cu42     Cu     0.249440000000     0.541150000000     0.762040000000     0.862135   
Cu43     Cu     0.236610000000     0.987870000000     0.509910000000     0.84646    
Cu44     Cu     0.294470000000     0.493330000000     0.008930000000     0.868799   
Cu45     Cu     0.520560000000     0.764800000000     0.506490000000     0.860185   
Cu46     Cu     0.011860000000     0.708230000000     0.003680000000     0.84486    
Cu47     Cu     0.264730000000     0.741040000000     0.550520000000     0.840376   
Cu48     Cu     0.264410000000     0.741090000000     0.991910000000     0.872153   
Cu49     Cu     0.495520000000     0.505740000000     0.298380000000     0.853446   
Cu50     Cu     0.003200000000     0.006970000000     0.240090000000     0.852869   
Cu51     Cu     0.966800000000     0.257460000000     0.255760000000     0.845734   
Cu52     Cu     0.524520000000     0.260260000000     0.262040000000     0.853072   
Cu53     Cu     0.749920000000     0.484350000000     0.270640000000     0.868059   
Cu54     Cu     0.749440000000     0.041150000000     0.262040000000     0.85931    
Cu55     Cu     0.736610000000     0.487870000000     0.009910000000     0.83854    
Cu56     Cu     0.794470000000     0.993330000000     0.508930000000     0.87697    
Cu57     Cu     0.020560000000     0.264800000000     0.006490000000     0.854094   
Cu58     Cu     0.511860000000     0.208230000000     0.503680000000     0.850975   
Cu59     Cu     0.764730000000     0.241040000000     0.050520000000     0.834369   
Cu60     Cu     0.764410000000     0.241090000000     0.491910000000     0.868666   
Cu61     Cu     0.495520000000     0.505740000000     0.798380000000     0.853679   
Cu62     Cu     0.003200000000     0.006970000000     0.740090000000     0.852989   
Cu63     Cu     0.966800000000     0.257460000000     0.755760000000     0.845664   
Cu64     Cu     0.524520000000     0.260260000000     0.762040000000     0.853035   
Cu65     Cu     0.749920000000     0.484350000000     0.770640000000     0.86803    
Cu66     Cu     0.749440000000     0.041150000000     0.762040000000     0.859239   
Cu67     Cu     0.736610000000     0.487870000000     0.509910000000     0.843827   
Cu68     Cu     0.794470000000     0.993330000000     0.008930000000     0.871575   
Cu69     Cu     0.020560000000     0.264800000000     0.506490000000     0.859336   
Cu70     Cu     0.511860000000     0.208230000000     0.003680000000     0.845683   
Cu71     Cu     0.764730000000     0.241040000000     0.550520000000     0.840527   
Cu72     Cu     0.764410000000     0.241090000000     0.991910000000     0.872149   
Cu73     Cu     0.495520000000     0.005740000000     0.298380000000     0.850558   
Cu74     Cu     0.003200000000     0.506970000000     0.240090000000     0.855178   
Cu75     Cu     0.966800000000     0.757460000000     0.255760000000     0.845866   
Cu76     Cu     0.524520000000     0.760260000000     0.262040000000     0.853023   
Cu77     Cu     0.749920000000     0.984350000000     0.270640000000     0.869673   
Cu78     Cu     0.749440000000     0.541150000000     0.262040000000     0.862185   
Cu79     Cu     0.736610000000     0.987870000000     0.009910000000     0.841161   
Cu80     Cu     0.794470000000     0.493330000000     0.508930000000     0.87425    
Cu81     Cu     0.020560000000     0.764800000000     0.006490000000     0.854131   
Cu82     Cu     0.511860000000     0.708230000000     0.503680000000     0.851052   
Cu83     Cu     0.764730000000     0.741040000000     0.050520000000     0.834207   
Cu84     Cu     0.764410000000     0.741090000000     0.491910000000     0.86865    
Cu85     Cu     0.495520000000     0.005740000000     0.798380000000     0.850777   
Cu86     Cu     0.003200000000     0.506970000000     0.740090000000     0.855312   
Cu87     Cu     0.966800000000     0.757460000000     0.755760000000     0.845796   
Cu88     Cu     0.524520000000     0.760260000000     0.762040000000     0.852986   
Cu89     Cu     0.749920000000     0.984350000000     0.770640000000     0.86965    
Cu90     Cu     0.749440000000     0.541150000000     0.762040000000     0.862125   
Cu91     Cu     0.736610000000     0.987870000000     0.509910000000     0.846462   
Cu92     Cu     0.794470000000     0.493330000000     0.008930000000     0.868871   
Cu93     Cu     0.020560000000     0.764800000000     0.506490000000     0.859381   
Cu94     Cu     0.511860000000     0.708230000000     0.003680000000     0.845743   
Cu95     Cu     0.764730000000     0.741040000000     0.550520000000     0.840378   
Cu96     Cu     0.764410000000     0.741090000000     0.991910000000     0.872138   
H1       H      0.389950000000     0.236950000000     0.060760000000     0.0454348  
H2       H      0.420600000000     0.281620000000     0.042120000000     0.0452449  
H3       H      0.391710000000     0.195740000000     0.516400000000     0.0533094  
H4       H      0.418090000000     0.213810000000     0.467110000000     0.0583367  
H5       H      0.363500000000     0.269340000000     0.055920000000     0.0465007  
H6       H      0.393150000000     0.288300000000     0.009790000000     0.0491038  
H7       H      0.390600000000     0.245500000000     0.464650000000     0.0601216  
H8       H      0.338580000000     0.155830000000     0.510400000000     0.145628   
H9       H      0.140860000000     0.189150000000     0.020120000000     0.0474914  
H10      H      0.164190000000     0.220130000000     0.063010000000     0.0501532  
H11      H      0.147730000000     0.219990000000     0.468480000000     0.0550347  
H12      H      0.168920000000     0.273100000000     0.475860000000     0.0596568  
H13      H      0.109640000000     0.200470000000     0.047070000000     0.0444544  
H14      H      0.135320000000     0.250370000000     0.057460000000     0.0501822  
H15      H      0.137190000000     0.281450000000     0.503070000000     0.0591563  
H16      H      0.097380000000     0.209750000000     0.422910000000     0.155635   
H17      H      0.230540000000     0.375500000000     0.524000000000     0.0513872  
H18      H      0.251770000000     0.340610000000     0.065060000000     0.0478144  
H19      H      0.266160000000     0.373360000000     0.470180000000     0.0520086  
H20      H      0.303720000000     0.331920000000     0.477430000000     0.0602976  
H21      H      0.247070000000     0.397380000000     0.056650000000     0.0422831  
H22      H      0.289890000000     0.359400000000     0.063060000000     0.0465945  
H23      H      0.322740000000     0.351640000000     0.009790000000     0.0477741  
H24      H      0.283920000000     0.417900000000     0.427870000000     0.151532   
H25      H      0.298220000000     0.111180000000     0.498410000000     0.0608191  
H26      H      0.296380000000     0.142170000000     0.548830000000     0.0496984  
H27      H      0.235380000000     0.104710000000     0.469130000000     0.0551336  
H28      H      0.213830000000     0.149670000000     0.990800000000     0.0559274  
H29      H      0.302360000000     0.087850000000     0.533570000000     0.0705332  
H30      H      0.262250000000     0.120390000000     0.061730000000     0.0661849  
H31      H      0.208150000000     0.133380000000     0.029420000000     0.0553546  
H32      H      0.204060000000     0.035780000000     0.469490000000     0.136822   
H33      H      0.269190000000     0.052510000000     0.395960000000     0.048517   
H34      H      0.308950000000     0.513020000000     0.409220000000     0.0573652  
H35      H      0.215040000000     0.027270000000     0.401330000000     0.0521867  
H36      H      0.216510000000     0.970360000000     0.411580000000     0.05962    
H37      H      0.292330000000     0.544340000000     0.360720000000     0.0460343  
H38      H      0.296970000000     0.489500000000     0.375860000000     0.0544409  
H39      H      0.240610000000     0.465230000000     0.376680000000     0.0628253  
H40      H      0.171460000000     0.051740000000     0.350950000000     0.155579   
H41      H      0.279070000000     0.452590000000     0.128760000000     0.0429292  
H42      H      0.241060000000     0.453490000000     0.170670000000     0.0479977  
H43      H      0.307500000000     0.007740000000     0.131480000000     0.0495355  
H44      H      0.279670000000     0.044710000000     0.166080000000     0.0581242  
H45      H      0.241570000000     0.451080000000     0.108930000000     0.0411655  
H46      H      0.216140000000     0.480250000000     0.149910000000     0.0474472  
H47      H      0.243660000000     0.040210000000     0.143520000000     0.0600668  
H48      H      0.342110000000     0.040640000000     0.087720000000     0.151486   
H49      H      0.995390000000     0.301400000000     0.389460000000     0.0572283  
H50      H      0.045410000000     0.279750000000     0.407970000000     0.0689237  
H51      H      0.453280000000     0.259680000000     0.391610000000     0.0586859  
H52      H      0.474290000000     0.208310000000     0.407330000000     0.0539593  
H53      H      0.022960000000     0.301920000000     0.356800000000     0.0552482  
H54      H      0.046510000000     0.253270000000     0.374910000000     0.0601674  
H55      H      0.501210000000     0.208740000000     0.373720000000     0.0561672  
H56      H      0.420040000000     0.263800000000     0.314240000000     0.137609   
H57      H      0.467130000000     0.251960000000     0.133010000000     0.0470803  
H58      H      0.478570000000     0.203260000000     0.104720000000     0.0443567  
H59      H      0.018300000000     0.287950000000     0.132190000000     0.0568081  
H60      H      0.059970000000     0.262360000000     0.101780000000     0.0550536  
H61      H      0.467200000000     0.220190000000     0.160950000000     0.0464974  
H62      H      0.510410000000     0.194530000000     0.132100000000     0.047061   
H63      H      0.060610000000     0.230590000000     0.129460000000     0.0534828  
H64      H      0.067930000000     0.320950000000     0.203250000000     0.162356   
H65      H      0.117940000000     0.058620000000     0.286510000000     0.0490302  
H66      H      0.149920000000     0.054050000000     0.239170000000     0.0493773  
H67      H      0.126770000000     0.007700000000     0.318020000000     0.0691643  
H68      H      0.153810000000     0.465590000000     0.286860000000     0.071818   
H69      H      0.091070000000     0.057780000000     0.253360000000     0.041391   
H70      H      0.125410000000     0.523660000000     0.223610000000     0.0469082  
H71      H      0.124860000000     0.470130000000     0.255810000000     0.0535033  
H72      H      0.088710000000     0.485290000000     0.365240000000     0.167813   
H73      H      0.376320000000     0.004340000000     0.215110000000     0.046267   
H74      H      0.348510000000     0.049930000000     0.235720000000     0.0547681  
H75      H      0.371160000000     0.461620000000     0.255380000000     0.0533624  
H76      H      0.344850000000     0.476810000000     0.305560000000     0.0562757  
H77      H      0.404760000000     0.034660000000     0.221670000000     0.067741   
H78      H      0.375200000000     0.052980000000     0.269030000000     0.0683852  
H79      H      0.374120000000     0.506500000000     0.311590000000     0.0602591  
H80      H      0.426140000000     0.423930000000     0.255860000000     0.147166   
H81      H      0.047300000000     0.387440000000     0.246260000000     0.0549062  
H82      H      0.014460000000     0.357410000000     0.210140000000     0.0534569  
H83      H      0.026440000000     0.378140000000     0.301430000000     0.064946   
H84      H      0.475990000000     0.349350000000     0.304150000000     0.0498185  
H85      H      0.027730000000     0.414120000000     0.220230000000     0.0529861  
H86      H      0.480980000000     0.381780000000     0.217820000000     0.0475656  
H87      H      0.457170000000     0.377940000000     0.279140000000     0.0659159  
H88      H      0.018130000000     0.455250000000     0.338970000000     0.158341   
H89      H      0.042420000000     0.114440000000     0.266620000000     0.0413708  
H90      H      0.039040000000     0.162130000000     0.294170000000     0.0496414  
H91      H      0.493630000000     0.119860000000     0.222030000000     0.0505967  
H92      H      0.456710000000     0.161630000000     0.235620000000     0.0593888  
H93      H      0.029510000000     0.103220000000     0.305510000000     0.0471889  
H94      H      0.003880000000     0.151130000000     0.314910000000     0.0556187  
H95      H      0.450810000000     0.146030000000     0.275150000000     0.0685585  
H96      H      0.458420000000     0.083800000000     0.183000000000     0.150135   
H97      H      0.389950000000     0.236950000000     0.560760000000     0.0452408  
H98      H      0.420600000000     0.281620000000     0.542120000000     0.0456554  
H99      H      0.391710000000     0.195740000000     0.016400000000     0.0543308  
H100     H      0.418090000000     0.213810000000     0.967110000000     0.0574968  
H101     H      0.363500000000     0.269340000000     0.555920000000     0.0464623  
H102     H      0.393150000000     0.288300000000     0.509790000000     0.0507782  
H103     H      0.390600000000     0.245500000000     0.964650000000     0.0592039  
H104     H      0.338580000000     0.155830000000     0.010400000000     0.140507   
H105     H      0.140860000000     0.189150000000     0.520120000000     0.0489546  
H106     H      0.164190000000     0.220130000000     0.563010000000     0.0501556  
H107     H      0.147730000000     0.219990000000     0.968480000000     0.0557798  
H108     H      0.168920000000     0.273100000000     0.975860000000     0.0585164  
H109     H      0.109640000000     0.200470000000     0.547070000000     0.0446189  
H110     H      0.135320000000     0.250370000000     0.557460000000     0.0503305  
H111     H      0.137190000000     0.281450000000     0.003070000000     0.0532921  
H112     H      0.097380000000     0.209750000000     0.922910000000     0.156042   
H113     H      0.230540000000     0.375500000000     0.024000000000     0.0501193  
H114     H      0.251770000000     0.340610000000     0.565060000000     0.0478566  
H115     H      0.266160000000     0.373360000000     0.970180000000     0.0528281  
H116     H      0.303720000000     0.331920000000     0.977430000000     0.0591079  
H117     H      0.247070000000     0.397380000000     0.556660000000     0.0423522  
H118     H      0.289890000000     0.359400000000     0.563060000000     0.0468494  
H119     H      0.322740000000     0.351640000000     0.509790000000     0.0537755  
H120     H      0.283920000000     0.417900000000     0.927870000000     0.151686   
H121     H      0.298220000000     0.111180000000     0.998410000000     0.0663573  
H122     H      0.296380000000     0.142170000000     0.048830000000     0.0490371  
H123     H      0.235380000000     0.104710000000     0.969130000000     0.0537463  
H124     H      0.213830000000     0.149670000000     0.490800000000     0.0496376  
H125     H      0.302360000000     0.087850000000     0.033570000000     0.071384   
H126     H      0.262250000000     0.120390000000     0.561730000000     0.0662602  
H127     H      0.208150000000     0.133380000000     0.529410000000     0.0535951  
H128     H      0.204060000000     0.035780000000     0.969490000000     0.136751   
H129     H      0.269190000000     0.052510000000     0.895960000000     0.0488365  
H130     H      0.308950000000     0.513020000000     0.909220000000     0.0578648  
H131     H      0.215040000000     0.027270000000     0.901330000000     0.0524097  
H132     H      0.216510000000     0.970360000000     0.911580000000     0.0600852  
H133     H      0.292330000000     0.544340000000     0.860720000000     0.0461478  
H134     H      0.296970000000     0.489500000000     0.875870000000     0.0545655  
H135     H      0.240610000000     0.465230000000     0.876680000000     0.0629463  
H136     H      0.171460000000     0.051740000000     0.850950000000     0.155705   
H137     H      0.279070000000     0.452590000000     0.628760000000     0.042995   
H138     H      0.241060000000     0.453490000000     0.670670000000     0.0480235  
H139     H      0.307500000000     0.007740000000     0.631480000000     0.0496063  
H140     H      0.279670000000     0.044710000000     0.666080000000     0.0581216  
H141     H      0.241570000000     0.451080000000     0.608930000000     0.0412692  
H142     H      0.216140000000     0.480250000000     0.649910000000     0.0475558  
H143     H      0.243660000000     0.040210000000     0.643520000000     0.0601104  
H144     H      0.342110000000     0.040640000000     0.587720000000     0.151776   
H145     H      0.995390000000     0.301400000000     0.889460000000     0.0576561  
H146     H      0.045410000000     0.279750000000     0.907970000000     0.0692367  
H147     H      0.453280000000     0.259680000000     0.891610000000     0.0590804  
H148     H      0.474290000000     0.208310000000     0.907340000000     0.0544842  
H149     H      0.022960000000     0.301920000000     0.856800000000     0.0553738  
H150     H      0.046510000000     0.253270000000     0.874910000000     0.0602115  
H151     H      0.501210000000     0.208740000000     0.873720000000     0.0563088  
H152     H      0.420040000000     0.263800000000     0.814240000000     0.137649   
H153     H      0.467130000000     0.251960000000     0.633010000000     0.0471261  
H154     H      0.478570000000     0.203260000000     0.604720000000     0.0444995  
H155     H      0.018300000000     0.287950000000     0.632200000000     0.0569334  
H156     H      0.059970000000     0.262360000000     0.601780000000     0.05515    
H157     H      0.467200000000     0.220190000000     0.660950000000     0.0465152  
H158     H      0.510410000000     0.194530000000     0.632100000000     0.047163   
H159     H      0.060610000000     0.230590000000     0.629460000000     0.0535157  
H160     H      0.067930000000     0.320950000000     0.703250000000     0.162415   
H161     H      0.117940000000     0.058620000000     0.786510000000     0.0490765  
H162     H      0.149920000000     0.054050000000     0.739170000000     0.0493983  
H163     H      0.126770000000     0.007700000000     0.818020000000     0.0691976  
H164     H      0.153810000000     0.465590000000     0.786860000000     0.0718251  
H165     H      0.091070000000     0.057780000000     0.753360000000     0.0414252  
H166     H      0.125410000000     0.523660000000     0.723610000000     0.046979   
H167     H      0.124860000000     0.470130000000     0.755810000000     0.0535278  
H168     H      0.088710000000     0.485290000000     0.865240000000     0.168144   
H169     H      0.376320000000     0.004340000000     0.715110000000     0.0463162  
H170     H      0.348510000000     0.049930000000     0.735720000000     0.0547685  
H171     H      0.371160000000     0.461620000000     0.755380000000     0.0533609  
H172     H      0.344850000000     0.476810000000     0.805560000000     0.0563306  
H173     H      0.404760000000     0.034660000000     0.721670000000     0.0677842  
H174     H      0.375200000000     0.052980000000     0.769030000000     0.0684134  
H175     H      0.374120000000     0.506500000000     0.811590000000     0.0603793  
H176     H      0.426140000000     0.423930000000     0.755860000000     0.147293   
H177     H      0.047300000000     0.387440000000     0.746260000000     0.0549251  
H178     H      0.014460000000     0.357410000000     0.710140000000     0.0535288  
H179     H      0.026440000000     0.378140000000     0.801430000000     0.0649868  
H180     H      0.475990000000     0.349350000000     0.804150000000     0.0498566  
H181     H      0.027730000000     0.414120000000     0.720230000000     0.0530706  
H182     H      0.480980000000     0.381780000000     0.717820000000     0.0476459  
H183     H      0.457170000000     0.377940000000     0.779140000000     0.0659058  
H184     H      0.018130000000     0.455250000000     0.838970000000     0.158547   
H185     H      0.042420000000     0.114440000000     0.766620000000     0.0413922  
H186     H      0.039040000000     0.162130000000     0.794170000000     0.0496891  
H187     H      0.493630000000     0.119860000000     0.722040000000     0.0506535  
H188     H      0.456710000000     0.161630000000     0.735620000000     0.0593854  
H189     H      0.029510000000     0.103220000000     0.805510000000     0.0473294  
H190     H      0.003880000000     0.151130000000     0.814910000000     0.0557465  
H191     H      0.450810000000     0.146030000000     0.775150000000     0.0685828  
H192     H      0.458420000000     0.083800000000     0.683000000000     0.150281   
H193     H      0.389950000000     0.736950000000     0.060760000000     0.0454517  
H194     H      0.420600000000     0.781620000000     0.042120000000     0.0452898  
H195     H      0.391710000000     0.695740000000     0.516400000000     0.0533438  
H196     H      0.418090000000     0.713810000000     0.467110000000     0.0583549  
H197     H      0.363500000000     0.769330000000     0.055920000000     0.0465339  
H198     H      0.393150000000     0.788300000000     0.009790000000     0.0491343  
H199     H      0.390600000000     0.745500000000     0.464650000000     0.0601215  
H200     H      0.338580000000     0.655830000000     0.510400000000     0.145678   
H201     H      0.140860000000     0.689150000000     0.020120000000     0.0475156  
H202     H      0.164190000000     0.720130000000     0.063010000000     0.0501681  
H203     H      0.147730000000     0.719990000000     0.468480000000     0.0550324  
H204     H      0.168920000000     0.773110000000     0.475860000000     0.0596819  
H205     H      0.109640000000     0.700470000000     0.047070000000     0.044493   
H206     H      0.135320000000     0.750370000000     0.057460000000     0.0502104  
H207     H      0.137190000000     0.781450000000     0.503070000000     0.0592142  
H208     H      0.097380000000     0.709750000000     0.422910000000     0.155653   
H209     H      0.230540000000     0.875500000000     0.524000000000     0.0514514  
H210     H      0.251770000000     0.840610000000     0.065060000000     0.0478517  
H211     H      0.266160000000     0.873360000000     0.470180000000     0.0520154  
H212     H      0.303720000000     0.831920000000     0.477430000000     0.0602984  
H213     H      0.247070000000     0.897380000000     0.056650000000     0.0423472  
H214     H      0.289890000000     0.859400000000     0.063060000000     0.0466561  
H215     H      0.322740000000     0.851640000000     0.009790000000     0.047814   
H216     H      0.283920000000     0.917890000000     0.427870000000     0.151467   
H217     H      0.298220000000     0.611180000000     0.498410000000     0.0609181  
H218     H      0.296380000000     0.642180000000     0.548830000000     0.0497086  
H219     H      0.235380000000     0.604710000000     0.469130000000     0.0551896  
H220     H      0.213830000000     0.649670000000     0.990800000000     0.0559466  
H221     H      0.302360000000     0.587850000000     0.533570000000     0.0706538  
H222     H      0.262250000000     0.620390000000     0.061730000000     0.0661946  
H223     H      0.208150000000     0.633380000000     0.029420000000     0.055381   
H224     H      0.204060000000     0.535780000000     0.469490000000     0.137567   
H225     H      0.269190000000     0.552510000000     0.395960000000     0.0488857  
H226     H      0.308950000000     0.013020000000     0.409220000000     0.0575259  
H227     H      0.215040000000     0.527270000000     0.401330000000     0.0521091  
H228     H      0.216510000000     0.470360000000     0.411580000000     0.0595665  
H229     H      0.292330000000     0.044340000000     0.360720000000     0.04554    
H230     H      0.296970000000     0.989500000000     0.375860000000     0.0572623  
H231     H      0.240610000000     0.965230000000     0.376680000000     0.0626485  
H232     H      0.171460000000     0.551740000000     0.350950000000     0.155559   
H233     H      0.279070000000     0.952590000000     0.128760000000     0.0434215  
H234     H      0.241060000000     0.953490000000     0.170670000000     0.0478823  
H235     H      0.307500000000     0.507740000000     0.131480000000     0.0498991  
H236     H      0.279670000000     0.544710000000     0.166080000000     0.0581645  
H237     H      0.241570000000     0.951080000000     0.108930000000     0.0413353  
H238     H      0.216140000000     0.980250000000     0.149910000000     0.0478411  
H239     H      0.243660000000     0.540220000000     0.143520000000     0.0605063  
H240     H      0.342110000000     0.540640000000     0.087720000000     0.15181    
H241     H      0.995390000000     0.801400000000     0.389460000000     0.0572525  
H242     H      0.045410000000     0.779750000000     0.407970000000     0.068945   
H243     H      0.453280000000     0.759680000000     0.391610000000     0.0587135  
H244     H      0.474290000000     0.708310000000     0.407330000000     0.0539851  
H245     H      0.022960000000     0.801920000000     0.356800000000     0.0552515  
H246     H      0.046510000000     0.753270000000     0.374910000000     0.0601658  
H247     H      0.501210000000     0.708740000000     0.373720000000     0.0561763  
H248     H      0.420040000000     0.763800000000     0.314240000000     0.137614   
H249     H      0.467130000000     0.751960000000     0.133010000000     0.0471102  
H250     H      0.478570000000     0.703260000000     0.104720000000     0.0443899  
H251     H      0.018300000000     0.787950000000     0.132190000000     0.0568593  
H252     H      0.059970000000     0.762360000000     0.101780000000     0.0550758  
H253     H      0.467200000000     0.720190000000     0.160950000000     0.046508   
H254     H      0.510410000000     0.694530000000     0.132100000000     0.0470955  
H255     H      0.060610000000     0.730590000000     0.129460000000     0.053491   
H256     H      0.067930000000     0.820950000000     0.203250000000     0.162392   
H257     H      0.117940000000     0.558630000000     0.286510000000     0.0490965  
H258     H      0.149920000000     0.554050000000     0.239170000000     0.0493844  
H259     H      0.126770000000     0.507700000000     0.318020000000     0.0718277  
H260     H      0.153810000000     0.965590000000     0.286860000000     0.0719298  
H261     H      0.091070000000     0.557780000000     0.253360000000     0.0414261  
H262     H      0.125410000000     0.023660000000     0.223610000000     0.0463683  
H263     H      0.124860000000     0.970120000000     0.255810000000     0.0539549  
H264     H      0.088710000000     0.985290000000     0.365240000000     0.16862    
H265     H      0.376320000000     0.504340000000     0.215110000000     0.0466087  
H266     H      0.348510000000     0.549930000000     0.235720000000     0.0548841  
H267     H      0.371160000000     0.961620000000     0.255380000000     0.0540692  
H268     H      0.344850000000     0.976810000000     0.305560000000     0.055593   
H269     H      0.404760000000     0.534660000000     0.221670000000     0.0674122  
H270     H      0.375200000000     0.552980000000     0.269030000000     0.0686247  
H271     H      0.374120000000     0.006500000000     0.311590000000     0.0572821  
H272     H      0.426140000000     0.923930000000     0.255860000000     0.147366   
H273     H      0.047300000000     0.887440000000     0.246260000000     0.0549865  
H274     H      0.014460000000     0.857410000000     0.210140000000     0.0535363  
H275     H      0.026440000000     0.878140000000     0.301430000000     0.0649625  
H276     H      0.475990000000     0.849350000000     0.304150000000     0.0498139  
H277     H      0.027730000000     0.914120000000     0.220230000000     0.0532738  
H278     H      0.480980000000     0.881780000000     0.217820000000     0.0477312  
H279     H      0.457170000000     0.877940000000     0.279140000000     0.0659301  
H280     H      0.018130000000     0.955250000000     0.338970000000     0.158998   
H281     H      0.042420000000     0.614440000000     0.266620000000     0.0413881  
H282     H      0.039040000000     0.662130000000     0.294170000000     0.0496482  
H283     H      0.493630000000     0.619860000000     0.222030000000     0.0506314  
H284     H      0.456710000000     0.661630000000     0.235620000000     0.0593825  
H285     H      0.029510000000     0.603220000000     0.305510000000     0.0472635  
H286     H      0.003880000000     0.651130000000     0.314910000000     0.0556548  
H287     H      0.450810000000     0.646030000000     0.275150000000     0.0685671  
H288     H      0.458420000000     0.583800000000     0.183000000000     0.150256   
H289     H      0.389950000000     0.736950000000     0.560760000000     0.0452573  
H290     H      0.420600000000     0.781620000000     0.542120000000     0.045701   
H291     H      0.391710000000     0.695740000000     0.016400000000     0.0543668  
H292     H      0.418090000000     0.713810000000     0.967110000000     0.0575134  
H293     H      0.363500000000     0.769330000000     0.555920000000     0.0464951  
H294     H      0.393150000000     0.788300000000     0.509790000000     0.0508117  
H295     H      0.390600000000     0.745500000000     0.964650000000     0.0592011  
H296     H      0.338580000000     0.655830000000     0.010400000000     0.140541   
H297     H      0.140860000000     0.689150000000     0.520120000000     0.0489836  
H298     H      0.164190000000     0.720130000000     0.563010000000     0.0501706  
H299     H      0.147730000000     0.719990000000     0.968480000000     0.0557793  
H300     H      0.168920000000     0.773110000000     0.975860000000     0.0585379  
H301     H      0.109640000000     0.700470000000     0.547070000000     0.0446586  
H302     H      0.135320000000     0.750370000000     0.557460000000     0.0503587  
H303     H      0.137190000000     0.781450000000     0.003070000000     0.0533365  
H304     H      0.097380000000     0.709750000000     0.922910000000     0.156061   
H305     H      0.230540000000     0.875500000000     0.024000000000     0.0501821  
H306     H      0.251770000000     0.840610000000     0.565060000000     0.0478941  
H307     H      0.266160000000     0.873360000000     0.970180000000     0.0528357  
H308     H      0.303720000000     0.831920000000     0.977430000000     0.0591078  
H309     H      0.247070000000     0.897380000000     0.556660000000     0.0424165  
H310     H      0.289890000000     0.859400000000     0.563060000000     0.0469113  
H311     H      0.322740000000     0.851640000000     0.509790000000     0.0538212  
H312     H      0.283920000000     0.917890000000     0.927870000000     0.151621   
H313     H      0.298220000000     0.611180000000     0.998410000000     0.0664767  
H314     H      0.296380000000     0.642180000000     0.048830000000     0.0490449  
H315     H      0.235380000000     0.604710000000     0.969130000000     0.0537974  
H316     H      0.213830000000     0.649670000000     0.490800000000     0.0496363  
H317     H      0.302360000000     0.587850000000     0.033570000000     0.0715069  
H318     H      0.262250000000     0.620390000000     0.561730000000     0.0662703  
H319     H      0.208150000000     0.633380000000     0.529410000000     0.0536157  
H320     H      0.204060000000     0.535780000000     0.969490000000     0.137496   
H321     H      0.269190000000     0.552510000000     0.895960000000     0.0492078  
H322     H      0.308950000000     0.013020000000     0.909220000000     0.058025   
H323     H      0.215040000000     0.527270000000     0.901330000000     0.0523324  
H324     H      0.216510000000     0.470360000000     0.911580000000     0.0600318  
H325     H      0.292330000000     0.044340000000     0.860720000000     0.0456511  
H326     H      0.296970000000     0.989500000000     0.875870000000     0.0573971  
H327     H      0.240610000000     0.965230000000     0.876680000000     0.0627691  
H328     H      0.171460000000     0.551740000000     0.850950000000     0.155685   
H329     H      0.279070000000     0.952590000000     0.628760000000     0.0434897  
H330     H      0.241060000000     0.953490000000     0.670670000000     0.0479073  
H331     H      0.307500000000     0.507740000000     0.631480000000     0.049973   
H332     H      0.279670000000     0.544710000000     0.666080000000     0.0581623  
H333     H      0.241570000000     0.951080000000     0.608930000000     0.0414396  
H334     H      0.216140000000     0.980250000000     0.649910000000     0.0479507  
H335     H      0.243660000000     0.540220000000     0.643520000000     0.060553   
H336     H      0.342110000000     0.540640000000     0.587720000000     0.152104   
H337     H      0.995390000000     0.801400000000     0.889460000000     0.0576806  
H338     H      0.045410000000     0.779750000000     0.907970000000     0.0692583  
H339     H      0.453280000000     0.759680000000     0.891610000000     0.0591085  
H340     H      0.474290000000     0.708310000000     0.907340000000     0.0545115  
H341     H      0.022960000000     0.801920000000     0.856800000000     0.0553771  
H342     H      0.046510000000     0.753270000000     0.874910000000     0.06021    
H343     H      0.501210000000     0.708740000000     0.873720000000     0.0563183  
H344     H      0.420040000000     0.763800000000     0.814240000000     0.137654   
H345     H      0.467130000000     0.751960000000     0.633010000000     0.047156   
H346     H      0.478570000000     0.703260000000     0.604720000000     0.0445334  
H347     H      0.018300000000     0.787950000000     0.632200000000     0.0569849  
H348     H      0.059970000000     0.762360000000     0.601780000000     0.0551723  
H349     H      0.467200000000     0.720190000000     0.660950000000     0.046526   
H350     H      0.510410000000     0.694530000000     0.632100000000     0.0471982  
H351     H      0.060610000000     0.730590000000     0.629460000000     0.0535241  
H352     H      0.067930000000     0.820950000000     0.703250000000     0.162451   
H353     H      0.117940000000     0.558630000000     0.786510000000     0.0491431  
H354     H      0.149920000000     0.554050000000     0.739170000000     0.0494057  
H355     H      0.126770000000     0.507700000000     0.818020000000     0.0718712  
H356     H      0.153810000000     0.965590000000     0.786860000000     0.0719373  
H357     H      0.091070000000     0.557780000000     0.753360000000     0.0414607  
H358     H      0.125410000000     0.023660000000     0.723610000000     0.0464355  
H359     H      0.124860000000     0.970120000000     0.755810000000     0.053981   
H360     H      0.088710000000     0.985290000000     0.865240000000     0.168952   
H361     H      0.376320000000     0.504340000000     0.715110000000     0.046661   
H362     H      0.348510000000     0.549930000000     0.735720000000     0.0548851  
H363     H      0.371160000000     0.961620000000     0.755380000000     0.0540707  
H364     H      0.344850000000     0.976810000000     0.805560000000     0.0556451  
H365     H      0.404760000000     0.534660000000     0.721670000000     0.0674545  
H366     H      0.375200000000     0.552980000000     0.769030000000     0.0686538  
H367     H      0.374120000000     0.006500000000     0.811590000000     0.0573903  
H368     H      0.426140000000     0.923930000000     0.755860000000     0.147494   
H369     H      0.047300000000     0.887440000000     0.746260000000     0.0550057  
H370     H      0.014460000000     0.857410000000     0.710140000000     0.0536084  
H371     H      0.026440000000     0.878140000000     0.801430000000     0.0650033  
H372     H      0.475990000000     0.849350000000     0.804150000000     0.049852   
H373     H      0.027730000000     0.914120000000     0.720230000000     0.0533594  
H374     H      0.480980000000     0.881780000000     0.717820000000     0.0478122  
H375     H      0.457170000000     0.877940000000     0.779140000000     0.06592    
H376     H      0.018130000000     0.955250000000     0.838970000000     0.159206   
H377     H      0.042420000000     0.614440000000     0.766620000000     0.0414096  
H378     H      0.039040000000     0.662130000000     0.794170000000     0.0496961  
H379     H      0.493630000000     0.619860000000     0.722040000000     0.0506886  
H380     H      0.456710000000     0.661630000000     0.735620000000     0.0593791  
H381     H      0.029510000000     0.603220000000     0.805510000000     0.0474046  
H382     H      0.003880000000     0.651130000000     0.814910000000     0.0557831  
H383     H      0.450810000000     0.646030000000     0.775150000000     0.0685916  
H384     H      0.458420000000     0.583800000000     0.683000000000     0.150403   
H385     H      0.889960000000     0.236950000000     0.060760000000     0.0454764  
H386     H      0.920600000000     0.281620000000     0.042120000000     0.0453691  
H387     H      0.891710000000     0.195740000000     0.516400000000     0.0533692  
H388     H      0.918090000000     0.213810000000     0.467110000000     0.058425   
H389     H      0.863500000000     0.269340000000     0.055920000000     0.046525   
H390     H      0.893150000000     0.288300000000     0.009790000000     0.0491683  
H391     H      0.890600000000     0.245500000000     0.464650000000     0.0601525  
H392     H      0.838580000000     0.155830000000     0.510400000000     0.145656   
H393     H      0.640860000000     0.189150000000     0.020120000000     0.0475068  
H394     H      0.664190000000     0.220130000000     0.063010000000     0.050157   
H395     H      0.647730000000     0.219990000000     0.468480000000     0.055036   
H396     H      0.668920000000     0.273100000000     0.475860000000     0.0596589  
H397     H      0.609640000000     0.200470000000     0.047070000000     0.0444739  
H398     H      0.635320000000     0.250370000000     0.057460000000     0.0501859  
H399     H      0.637190000000     0.281450000000     0.503070000000     0.0591686  
H400     H      0.597380000000     0.209750000000     0.422910000000     0.155659   
H401     H      0.730540000000     0.375500000000     0.524000000000     0.0513992  
H402     H      0.751770000000     0.340610000000     0.065060000000     0.0478136  
H403     H      0.766160000000     0.373360000000     0.470180000000     0.0519975  
H404     H      0.803720000000     0.331920000000     0.477430000000     0.0603055  
H405     H      0.747070000000     0.397380000000     0.056650000000     0.0423003  
H406     H      0.789890000000     0.359400000000     0.063060000000     0.046611   
H407     H      0.822740000000     0.351640000000     0.009790000000     0.0478216  
H408     H      0.783920000000     0.417900000000     0.427870000000     0.151528   
H409     H      0.798220000000     0.111180000000     0.498410000000     0.0607855  
H410     H      0.796380000000     0.142170000000     0.548830000000     0.0497422  
H411     H      0.735380000000     0.104710000000     0.469130000000     0.0551322  
H412     H      0.713830000000     0.149670000000     0.990800000000     0.0559205  
H413     H      0.802360000000     0.087850000000     0.533570000000     0.0705028  
H414     H      0.762250000000     0.120390000000     0.061730000000     0.0662193  
H415     H      0.708150000000     0.133380000000     0.029420000000     0.0553579  
H416     H      0.704060000000     0.035780000000     0.469490000000     0.136831   
H417     H      0.769190000000     0.052510000000     0.395960000000     0.048521   
H418     H      0.808950000000     0.513020000000     0.409220000000     0.0573901  
H419     H      0.715040000000     0.027270000000     0.401330000000     0.0521896  
H420     H      0.716510000000     0.970360000000     0.411580000000     0.0596257  
H421     H      0.792330000000     0.544340000000     0.360720000000     0.0460413  
H422     H      0.796970000000     0.489500000000     0.375860000000     0.0544491  
H423     H      0.740610000000     0.465230000000     0.376680000000     0.0628241  
H424     H      0.671460000000     0.051740000000     0.350950000000     0.155592   
H425     H      0.779070000000     0.452590000000     0.128760000000     0.0429486  
H426     H      0.741060000000     0.453490000000     0.170670000000     0.0479883  
H427     H      0.807500000000     0.007740000000     0.131480000000     0.0495897  
H428     H      0.779670000000     0.044710000000     0.166080000000     0.0581198  
H429     H      0.741570000000     0.451080000000     0.108930000000     0.0411768  
H430     H      0.716130000000     0.480250000000     0.149910000000     0.0474358  
H431     H      0.743660000000     0.040210000000     0.143520000000     0.0600635  
H432     H      0.842110000000     0.040640000000     0.087720000000     0.151546   
H433     H      0.495390000000     0.301400000000     0.389460000000     0.0560885  
H434     H      0.545410000000     0.279750000000     0.407970000000     0.0691113  
H435     H      0.953280000000     0.259680000000     0.391610000000     0.0588753  
H436     H      0.974290000000     0.208310000000     0.407330000000     0.0538202  
H437     H      0.522960000000     0.301920000000     0.356800000000     0.0550297  
H438     H      0.546510000000     0.253270000000     0.374910000000     0.0603297  
H439     H      0.001210000000     0.208740000000     0.373720000000     0.0550911  
H440     H      0.920040000000     0.263800000000     0.314240000000     0.137713   
H441     H      0.967130000000     0.251960000000     0.133010000000     0.0472653  
H442     H      0.978560000000     0.203260000000     0.104720000000     0.044219   
H443     H      0.518300000000     0.287950000000     0.132190000000     0.0569993  
H444     H      0.559960000000     0.262360000000     0.101780000000     0.0550759  
H445     H      0.967200000000     0.220190000000     0.160950000000     0.0466356  
H446     H      0.010410000000     0.194530000000     0.132100000000     0.046018   
H447     H      0.560610000000     0.230590000000     0.129460000000     0.0535438  
H448     H      0.567930000000     0.320950000000     0.203250000000     0.162341   
H449     H      0.617940000000     0.058620000000     0.286510000000     0.0490587  
H450     H      0.649920000000     0.054050000000     0.239170000000     0.0493858  
H451     H      0.626770000000     0.007700000000     0.318020000000     0.0691721  
H452     H      0.653810000000     0.465590000000     0.286860000000     0.0718135  
H453     H      0.591070000000     0.057780000000     0.253360000000     0.0414763  
H454     H      0.625410000000     0.523660000000     0.223610000000     0.0469342  
H455     H      0.624860000000     0.470130000000     0.255810000000     0.0535093  
H456     H      0.588710000000     0.485290000000     0.365240000000     0.167852   
H457     H      0.876320000000     0.004340000000     0.215110000000     0.0463109  
H458     H      0.848500000000     0.049930000000     0.235720000000     0.0547705  
H459     H      0.871160000000     0.461620000000     0.255380000000     0.0533844  
H460     H      0.844840000000     0.476810000000     0.305560000000     0.0562743  
H461     H      0.904760000000     0.034660000000     0.221670000000     0.0677811  
H462     H      0.875200000000     0.052980000000     0.269030000000     0.068389   
H463     H      0.874120000000     0.506500000000     0.311590000000     0.0602694  
H464     H      0.926140000000     0.423930000000     0.255860000000     0.147311   
H465     H      0.547300000000     0.387440000000     0.246260000000     0.0549801  
H466     H      0.514460000000     0.357410000000     0.210140000000     0.053288   
H467     H      0.526440000000     0.378140000000     0.301430000000     0.0646824  
H468     H      0.975990000000     0.349350000000     0.304150000000     0.0496965  
H469     H      0.527740000000     0.414120000000     0.220230000000     0.0531595  
H470     H      0.980980000000     0.381780000000     0.217820000000     0.0486071  
H471     H      0.957170000000     0.377940000000     0.279140000000     0.0657163  
H472     H      0.518130000000     0.455250000000     0.338970000000     0.158144   
H473     H      0.542420000000     0.114440000000     0.266620000000     0.0414394  
H474     H      0.539040000000     0.162130000000     0.294170000000     0.0496276  
H475     H      0.993630000000     0.119860000000     0.222030000000     0.0508794  
H476     H      0.956710000000     0.161630000000     0.235620000000     0.0594072  
H477     H      0.529510000000     0.103220000000     0.305510000000     0.047277   
H478     H      0.503880000000     0.151130000000     0.314910000000     0.0558441  
H479     H      0.950810000000     0.146030000000     0.275150000000     0.0686156  
H480     H      0.958420000000     0.083800000000     0.183000000000     0.150304   
H481     H      0.889960000000     0.236950000000     0.560760000000     0.0452826  
H482     H      0.920600000000     0.281620000000     0.542120000000     0.045777   
H483     H      0.891710000000     0.195740000000     0.016400000000     0.0543875  
H484     H      0.918090000000     0.213810000000     0.967110000000     0.0575864  
H485     H      0.863500000000     0.269340000000     0.555920000000     0.0464867  
H486     H      0.893150000000     0.288300000000     0.509790000000     0.0508367  
H487     H      0.890600000000     0.245500000000     0.964650000000     0.0592382  
H488     H      0.838580000000     0.155830000000     0.010400000000     0.140551   
H489     H      0.640860000000     0.189150000000     0.520120000000     0.048969   
H490     H      0.664190000000     0.220130000000     0.563010000000     0.0501595  
H491     H      0.647730000000     0.219990000000     0.968480000000     0.0557802  
H492     H      0.668920000000     0.273100000000     0.975860000000     0.0585192  
H493     H      0.609640000000     0.200470000000     0.547070000000     0.0446384  
H494     H      0.635320000000     0.250370000000     0.557460000000     0.0503342  
H495     H      0.637190000000     0.281450000000     0.003070000000     0.0533084  
H496     H      0.597380000000     0.209750000000     0.922910000000     0.156066   
H497     H      0.730540000000     0.375500000000     0.024000000000     0.0501329  
H498     H      0.751770000000     0.340610000000     0.565060000000     0.047856   
H499     H      0.766160000000     0.373360000000     0.970180000000     0.0528156  
H500     H      0.803720000000     0.331920000000     0.977430000000     0.0591187  
H501     H      0.747070000000     0.397380000000     0.556660000000     0.0423695  
H502     H      0.789890000000     0.359400000000     0.563060000000     0.0468648  
H503     H      0.822740000000     0.351640000000     0.509790000000     0.0538067  
H504     H      0.783920000000     0.417900000000     0.927870000000     0.151682   
H505     H      0.798220000000     0.111180000000     0.998410000000     0.0663073  
H506     H      0.796380000000     0.142170000000     0.048830000000     0.0490828  
H507     H      0.735380000000     0.104710000000     0.969130000000     0.0537472  
H508     H      0.713830000000     0.149670000000     0.490800000000     0.0496405  
H509     H      0.802360000000     0.087850000000     0.033570000000     0.0713492  
H510     H      0.762250000000     0.120390000000     0.561730000000     0.0662939  
H511     H      0.708150000000     0.133380000000     0.529410000000     0.0536017  
H512     H      0.704060000000     0.035780000000     0.969490000000     0.13676    
H513     H      0.769190000000     0.052510000000     0.895960000000     0.0488397  
H514     H      0.808950000000     0.513020000000     0.909220000000     0.057888   
H515     H      0.715040000000     0.027270000000     0.901330000000     0.0524122  
H516     H      0.716510000000     0.970360000000     0.911580000000     0.0600903  
H517     H      0.792330000000     0.544340000000     0.860720000000     0.0461544  
H518     H      0.796970000000     0.489500000000     0.875870000000     0.0545732  
H519     H      0.740610000000     0.465230000000     0.876680000000     0.0629449  
H520     H      0.671460000000     0.051740000000     0.850950000000     0.155718   
H521     H      0.779070000000     0.452590000000     0.628760000000     0.043014   
H522     H      0.741060000000     0.453490000000     0.670670000000     0.0480141  
H523     H      0.807500000000     0.007740000000     0.631480000000     0.0496601  
H524     H      0.779670000000     0.044710000000     0.666080000000     0.0581171  
H525     H      0.741570000000     0.451080000000     0.608930000000     0.0412804  
H526     H      0.716130000000     0.480250000000     0.649910000000     0.0475445  
H527     H      0.743660000000     0.040210000000     0.643520000000     0.0601072  
H528     H      0.842110000000     0.040640000000     0.587720000000     0.151834   
H529     H      0.495390000000     0.301400000000     0.889460000000     0.0565352  
H530     H      0.545410000000     0.279750000000     0.907970000000     0.0694218  
H531     H      0.953280000000     0.259680000000     0.891610000000     0.059265   
H532     H      0.974290000000     0.208310000000     0.907340000000     0.0543452  
H533     H      0.522960000000     0.301920000000     0.856800000000     0.055159   
H534     H      0.546510000000     0.253270000000     0.874910000000     0.0603714  
H535     H      0.001210000000     0.208740000000     0.873720000000     0.0552475  
H536     H      0.920040000000     0.263800000000     0.814240000000     0.137754   
H537     H      0.967130000000     0.251960000000     0.633010000000     0.047309   
H538     H      0.978560000000     0.203260000000     0.604720000000     0.0443625  
H539     H      0.518300000000     0.287950000000     0.632200000000     0.0571239  
H540     H      0.559960000000     0.262360000000     0.601780000000     0.0551722  
H541     H      0.967200000000     0.220190000000     0.660950000000     0.0466519  
H542     H      0.010410000000     0.194530000000     0.632100000000     0.0461293  
H543     H      0.560610000000     0.230590000000     0.629460000000     0.0535762  
H544     H      0.567930000000     0.320950000000     0.703250000000     0.1624     
H545     H      0.617940000000     0.058620000000     0.786510000000     0.0491047  
H546     H      0.649920000000     0.054050000000     0.739170000000     0.0494067  
H547     H      0.626770000000     0.007700000000     0.818020000000     0.0692053  
H548     H      0.653810000000     0.465590000000     0.786860000000     0.0718207  
H549     H      0.591070000000     0.057780000000     0.753360000000     0.0415098  
H550     H      0.625410000000     0.523660000000     0.723610000000     0.0470049  
H551     H      0.624860000000     0.470130000000     0.755810000000     0.0535337  
H552     H      0.588710000000     0.485290000000     0.865240000000     0.168182   
H553     H      0.876320000000     0.004340000000     0.715110000000     0.0463595  
H554     H      0.848500000000     0.049930000000     0.735720000000     0.0547709  
H555     H      0.871160000000     0.461620000000     0.755380000000     0.0533828  
H556     H      0.844840000000     0.476810000000     0.805560000000     0.0563289  
H557     H      0.904760000000     0.034660000000     0.721670000000     0.0678238  
H558     H      0.875200000000     0.052980000000     0.769030000000     0.068417   
H559     H      0.874120000000     0.506500000000     0.811590000000     0.0603889  
H560     H      0.926140000000     0.423930000000     0.755860000000     0.147438   
H561     H      0.547300000000     0.387440000000     0.746260000000     0.0549982  
H562     H      0.514460000000     0.357410000000     0.710140000000     0.0533621  
H563     H      0.526440000000     0.378140000000     0.801430000000     0.0647263  
H564     H      0.975990000000     0.349350000000     0.804150000000     0.0497356  
H565     H      0.527740000000     0.414120000000     0.720230000000     0.0532429  
H566     H      0.980980000000     0.381780000000     0.717820000000     0.0486761  
H567     H      0.957170000000     0.377940000000     0.779140000000     0.0657087  
H568     H      0.518130000000     0.455250000000     0.838970000000     0.158353   
H569     H      0.542420000000     0.114440000000     0.766620000000     0.0414601  
H570     H      0.539040000000     0.162130000000     0.794170000000     0.0496755  
H571     H      0.993630000000     0.119860000000     0.722040000000     0.0509323  
H572     H      0.956710000000     0.161630000000     0.735620000000     0.0594036  
H573     H      0.529510000000     0.103220000000     0.805510000000     0.0474167  
H574     H      0.503880000000     0.151130000000     0.814910000000     0.05597    
H575     H      0.950810000000     0.146030000000     0.775150000000     0.0686392  
H576     H      0.958420000000     0.083800000000     0.683000000000     0.150447   
H577     H      0.889960000000     0.736950000000     0.060760000000     0.0454931  
H578     H      0.920600000000     0.781620000000     0.042120000000     0.0454134  
H579     H      0.891710000000     0.695740000000     0.516400000000     0.0534034  
H580     H      0.918090000000     0.713810000000     0.467110000000     0.058443   
H581     H      0.863500000000     0.769330000000     0.055920000000     0.0465581  
H582     H      0.893150000000     0.788300000000     0.009790000000     0.0491984  
H583     H      0.890600000000     0.745500000000     0.464650000000     0.0601523  
H584     H      0.838580000000     0.655830000000     0.510400000000     0.145706   
H585     H      0.640860000000     0.689150000000     0.020120000000     0.0475311  
H586     H      0.664190000000     0.720130000000     0.063010000000     0.0501719  
H587     H      0.647730000000     0.719990000000     0.468480000000     0.0550338  
H588     H      0.668920000000     0.773110000000     0.475860000000     0.0596841  
H589     H      0.609640000000     0.700470000000     0.047070000000     0.0445126  
H590     H      0.635320000000     0.750370000000     0.057460000000     0.0502141  
H591     H      0.637190000000     0.781450000000     0.503070000000     0.0592266  
H592     H      0.597380000000     0.709750000000     0.422910000000     0.155677   
H593     H      0.730540000000     0.875500000000     0.524000000000     0.0514635  
H594     H      0.751770000000     0.840610000000     0.065060000000     0.047851   
H595     H      0.766160000000     0.873360000000     0.470180000000     0.0520044  
H596     H      0.803720000000     0.831920000000     0.477430000000     0.0603062  
H597     H      0.747070000000     0.897380000000     0.056650000000     0.0423645  
H598     H      0.789890000000     0.859400000000     0.063060000000     0.0466723  
H599     H      0.822740000000     0.851640000000     0.009790000000     0.0478612  
H600     H      0.783920000000     0.917890000000     0.427870000000     0.151463   
H601     H      0.798220000000     0.611180000000     0.498410000000     0.0608843  
H602     H      0.796380000000     0.642180000000     0.548830000000     0.0497524  
H603     H      0.735380000000     0.604710000000     0.469130000000     0.0551882  
H604     H      0.713830000000     0.649670000000     0.990800000000     0.0559397  
H605     H      0.802360000000     0.587850000000     0.533570000000     0.0706231  
H606     H      0.762250000000     0.620390000000     0.061730000000     0.0662289  
H607     H      0.708150000000     0.633380000000     0.029420000000     0.0553844  
H608     H      0.704060000000     0.535780000000     0.469490000000     0.137576   
H609     H      0.769190000000     0.552510000000     0.395960000000     0.0488892  
H610     H      0.808950000000     0.013020000000     0.409220000000     0.0575509  
H611     H      0.715040000000     0.527270000000     0.401330000000     0.0521121  
H612     H      0.716510000000     0.470360000000     0.411580000000     0.0595718  
H613     H      0.792330000000     0.044340000000     0.360720000000     0.0455479  
H614     H      0.796970000000     0.989500000000     0.375860000000     0.0572664  
H615     H      0.740610000000     0.965230000000     0.376680000000     0.0626474  
H616     H      0.671460000000     0.551740000000     0.350950000000     0.155572   
H617     H      0.779070000000     0.952590000000     0.128760000000     0.0434398  
H618     H      0.741060000000     0.953490000000     0.170670000000     0.0478732  
H619     H      0.807500000000     0.507740000000     0.131480000000     0.0499525  
H620     H      0.779670000000     0.544710000000     0.166080000000     0.0581597  
H621     H      0.741570000000     0.951080000000     0.108930000000     0.0413466  
H622     H      0.716130000000     0.980250000000     0.149910000000     0.0478305  
H623     H      0.743660000000     0.540220000000     0.143520000000     0.0605028  
H624     H      0.842110000000     0.540640000000     0.087720000000     0.151869   
H625     H      0.495390000000     0.801400000000     0.389460000000     0.0561162  
H626     H      0.545410000000     0.779750000000     0.407970000000     0.0691323  
H627     H      0.953280000000     0.759680000000     0.391610000000     0.0589025  
H628     H      0.974290000000     0.708310000000     0.407330000000     0.053846   
H629     H      0.522960000000     0.801920000000     0.356800000000     0.0550335  
H630     H      0.546510000000     0.753270000000     0.374910000000     0.0603278  
H631     H      0.001210000000     0.708740000000     0.373720000000     0.0551015  
H632     H      0.920040000000     0.763800000000     0.314240000000     0.137719   
H633     H      0.967130000000     0.751960000000     0.133010000000     0.0472946  
H634     H      0.978560000000     0.703260000000     0.104720000000     0.0442523  
H635     H      0.518300000000     0.787950000000     0.132190000000     0.0570506  
H636     H      0.559960000000     0.762360000000     0.101780000000     0.0550982  
H637     H      0.967200000000     0.720190000000     0.160950000000     0.0466459  
H638     H      0.010410000000     0.694530000000     0.132100000000     0.0460537  
H639     H      0.560610000000     0.730590000000     0.129460000000     0.0535519  
H640     H      0.567930000000     0.820950000000     0.203250000000     0.162377   
H641     H      0.617940000000     0.558630000000     0.286510000000     0.0491251  
H642     H      0.649920000000     0.554050000000     0.239170000000     0.0493929  
H643     H      0.626770000000     0.507700000000     0.318020000000     0.0718386  
H644     H      0.653810000000     0.965590000000     0.286860000000     0.0719262  
H645     H      0.591070000000     0.557780000000     0.253360000000     0.0415115  
H646     H      0.625410000000     0.023660000000     0.223610000000     0.0463936  
H647     H      0.624860000000     0.970120000000     0.255810000000     0.053962   
H648     H      0.588710000000     0.985290000000     0.365240000000     0.16866    
H649     H      0.876320000000     0.504340000000     0.215110000000     0.0466523  
H650     H      0.848500000000     0.549930000000     0.235720000000     0.0548861  
H651     H      0.871160000000     0.961620000000     0.255380000000     0.0540893  
H652     H      0.844840000000     0.976810000000     0.305560000000     0.0555944  
H653     H      0.904760000000     0.534660000000     0.221670000000     0.0674535  
H654     H      0.875200000000     0.552980000000     0.269030000000     0.0686277  
H655     H      0.874120000000     0.006500000000     0.311590000000     0.0573002  
H656     H      0.926140000000     0.923930000000     0.255860000000     0.14751    
H657     H      0.547300000000     0.887440000000     0.246260000000     0.0550603  
H658     H      0.514460000000     0.857410000000     0.210140000000     0.0533684  
H659     H      0.526440000000     0.878140000000     0.301430000000     0.0647     
H660     H      0.975990000000     0.849350000000     0.304150000000     0.0496924  
H661     H      0.527740000000     0.914120000000     0.220230000000     0.0534475  
H662     H      0.980980000000     0.881780000000     0.217820000000     0.0487681  
H663     H      0.957170000000     0.877940000000     0.279140000000     0.0657312  
H664     H      0.518130000000     0.955250000000     0.338970000000     0.158805   
H665     H      0.542420000000     0.614440000000     0.266620000000     0.0414566  
H666     H      0.539040000000     0.662130000000     0.294170000000     0.0496344  
H667     H      0.993630000000     0.619860000000     0.222030000000     0.0509132  
H668     H      0.956710000000     0.661630000000     0.235620000000     0.0594008  
H669     H      0.529510000000     0.603220000000     0.305510000000     0.047352   
H670     H      0.503880000000     0.651130000000     0.314910000000     0.0558805  
H671     H      0.950810000000     0.646030000000     0.275150000000     0.0686242  
H672     H      0.958420000000     0.583800000000     0.183000000000     0.150424   
H673     H      0.889960000000     0.736950000000     0.560760000000     0.045299   
H674     H      0.920600000000     0.781620000000     0.542120000000     0.0458219  
H675     H      0.891710000000     0.695740000000     0.016400000000     0.0544232  
H676     H      0.918090000000     0.713810000000     0.967110000000     0.0576027  
H677     H      0.863500000000     0.769330000000     0.555920000000     0.0465193  
H678     H      0.893150000000     0.788300000000     0.509790000000     0.0508698  
H679     H      0.890600000000     0.745500000000     0.964650000000     0.0592353  
H680     H      0.838580000000     0.655830000000     0.010400000000     0.140584   
H681     H      0.640860000000     0.689150000000     0.520120000000     0.0489981  
H682     H      0.664190000000     0.720130000000     0.563010000000     0.0501745  
H683     H      0.647730000000     0.719990000000     0.968480000000     0.0557798  
H684     H      0.668920000000     0.773110000000     0.975860000000     0.0585407  
H685     H      0.609640000000     0.700470000000     0.547070000000     0.0446782  
H686     H      0.635320000000     0.750370000000     0.557460000000     0.0503624  
H687     H      0.637190000000     0.781450000000     0.003070000000     0.0533528  
H688     H      0.597380000000     0.709750000000     0.922910000000     0.156085   
H689     H      0.730540000000     0.875500000000     0.024000000000     0.0501959  
H690     H      0.751770000000     0.840610000000     0.565060000000     0.0478935  
H691     H      0.766160000000     0.873360000000     0.970180000000     0.0528233  
H692     H      0.803720000000     0.831920000000     0.977430000000     0.0591185  
H693     H      0.747070000000     0.897380000000     0.556660000000     0.0424338  
H694     H      0.789890000000     0.859400000000     0.563060000000     0.0469265  
H695     H      0.822740000000     0.851640000000     0.509790000000     0.0538521  
H696     H      0.783920000000     0.917890000000     0.927870000000     0.151617   
H697     H      0.798220000000     0.611180000000     0.998410000000     0.0664264  
H698     H      0.796380000000     0.642180000000     0.048830000000     0.0490906  
H699     H      0.735380000000     0.604710000000     0.969130000000     0.0537983  
H700     H      0.713830000000     0.649670000000     0.490800000000     0.0496392  
H701     H      0.802360000000     0.587850000000     0.033570000000     0.0714718  
H702     H      0.762250000000     0.620390000000     0.561730000000     0.0663041  
H703     H      0.708150000000     0.633380000000     0.529410000000     0.0536224  
H704     H      0.704060000000     0.535780000000     0.969490000000     0.137505   
H705     H      0.769190000000     0.552510000000     0.895960000000     0.0492104  
H706     H      0.808950000000     0.013020000000     0.909220000000     0.0580482  
H707     H      0.715040000000     0.527270000000     0.901330000000     0.0523351  
H708     H      0.716510000000     0.470360000000     0.911580000000     0.0600365  
H709     H      0.792330000000     0.044340000000     0.860720000000     0.0456585  
H710     H      0.796970000000     0.989500000000     0.875870000000     0.0574007  
H711     H      0.740610000000     0.965230000000     0.876680000000     0.0627679  
H712     H      0.671460000000     0.551740000000     0.850950000000     0.155698   
H713     H      0.779070000000     0.952590000000     0.628760000000     0.0435077  
H714     H      0.741060000000     0.953490000000     0.670670000000     0.0478982  
H715     H      0.807500000000     0.507740000000     0.631480000000     0.0500259  
H716     H      0.779670000000     0.544710000000     0.666080000000     0.0581575  
H717     H      0.741570000000     0.951080000000     0.608930000000     0.0414508  
H718     H      0.716130000000     0.980250000000     0.649910000000     0.0479401  
H719     H      0.743660000000     0.540220000000     0.643520000000     0.0605495  
H720     H      0.842110000000     0.540640000000     0.587720000000     0.152161   
H721     H      0.495390000000     0.801400000000     0.889460000000     0.0565633  
H722     H      0.545410000000     0.779750000000     0.907970000000     0.0694431  
H723     H      0.953280000000     0.759680000000     0.891610000000     0.0592927  
H724     H      0.974290000000     0.708310000000     0.907340000000     0.0543725  
H725     H      0.522960000000     0.801920000000     0.856800000000     0.0551628  
H726     H      0.546510000000     0.753270000000     0.874910000000     0.0603696  
H727     H      0.001210000000     0.708740000000     0.873720000000     0.0552584  
H728     H      0.920040000000     0.763800000000     0.814240000000     0.137759   
H729     H      0.967130000000     0.751960000000     0.633010000000     0.0473384  
H730     H      0.978560000000     0.703260000000     0.604720000000     0.0443965  
H731     H      0.518300000000     0.787950000000     0.632200000000     0.0571754  
H732     H      0.559960000000     0.762360000000     0.601780000000     0.0551946  
H733     H      0.967200000000     0.720190000000     0.660950000000     0.0466624  
H734     H      0.010410000000     0.694530000000     0.632100000000     0.0461657  
H735     H      0.560610000000     0.730590000000     0.629460000000     0.0535846  
H736     H      0.567930000000     0.820950000000     0.703250000000     0.162436   
H737     H      0.617940000000     0.558630000000     0.786510000000     0.0491714  
H738     H      0.649920000000     0.554050000000     0.739170000000     0.0494141  
H739     H      0.626770000000     0.507700000000     0.818020000000     0.071882   
H740     H      0.653810000000     0.965590000000     0.786860000000     0.0719338  
H741     H      0.591070000000     0.557780000000     0.753360000000     0.0415453  
H742     H      0.625410000000     0.023660000000     0.723610000000     0.0464607  
H743     H      0.624860000000     0.970120000000     0.755810000000     0.0539882  
H744     H      0.588710000000     0.985290000000     0.865240000000     0.168991   
H745     H      0.876320000000     0.504340000000     0.715110000000     0.0467039  
H746     H      0.848500000000     0.549930000000     0.735720000000     0.0548871  
H747     H      0.871160000000     0.961620000000     0.755380000000     0.0540907  
H748     H      0.844840000000     0.976810000000     0.805560000000     0.0556462  
H749     H      0.904760000000     0.534660000000     0.721670000000     0.0674953  
H750     H      0.875200000000     0.552980000000     0.769030000000     0.0686566  
H751     H      0.874120000000     0.006500000000     0.811590000000     0.0574076  
H752     H      0.926140000000     0.923930000000     0.755860000000     0.147637   
H753     H      0.547300000000     0.887440000000     0.746260000000     0.0550787  
H754     H      0.514460000000     0.857410000000     0.710140000000     0.0534428  
H755     H      0.526440000000     0.878140000000     0.801430000000     0.064744   
H756     H      0.975990000000     0.849350000000     0.804150000000     0.0497315  
H757     H      0.527740000000     0.914120000000     0.720230000000     0.053532   
H758     H      0.980980000000     0.881780000000     0.717820000000     0.0488377  
H759     H      0.957170000000     0.877940000000     0.779140000000     0.0657237  
H760     H      0.518130000000     0.955250000000     0.838970000000     0.159016   
H761     H      0.542420000000     0.614440000000     0.766620000000     0.0414775  
H762     H      0.539040000000     0.662130000000     0.794170000000     0.0496825  
H763     H      0.993630000000     0.619860000000     0.722040000000     0.0509665  
H764     H      0.956710000000     0.661630000000     0.735620000000     0.0593972  
H765     H      0.529510000000     0.603220000000     0.805510000000     0.0474923  
H766     H      0.503880000000     0.651130000000     0.814910000000     0.0560069  
H767     H      0.950810000000     0.646030000000     0.775150000000     0.0686479  
H768     H      0.958420000000     0.583800000000     0.683000000000     0.150569   
N1       N      0.359690000000     0.232990000000     0.520580000000    -0.158721   
N2       N      0.421870000000     0.248630000000     0.503750000000    -0.164126   
N3       N      0.110650000000     0.223980000000     0.001760000000    -0.161686   
N4       N      0.169390000000     0.247970000000     0.020490000000    -0.165451   
N5       N      0.273920000000     0.397770000000     0.513110000000    -0.158167   
N6       N      0.278400000000     0.333220000000     0.521970000000    -0.164923   
N7       N      0.257600000000     0.084340000000     0.008820000000    -0.146909   
N8       N      0.254160000000     0.148720000000     0.021520000000    -0.161534   
N9       N      0.245020000000     0.526000000000     0.361110000000    -0.160714   
N10      N      0.263380000000     0.490450000000     0.413400000000    -0.162398   
N11      N      0.266890000000     0.994100000000     0.105280000000    -0.157096   
N12      N      0.255890000000     0.001140000000     0.171160000000    -0.165485   
N13      N      0.486190000000     0.267410000000     0.354320000000    -0.152385   
N14      N      0.511920000000     0.241950000000     0.409340000000    -0.160955   
N15      N      0.007140000000     0.251200000000     0.163540000000    -0.158083   
N16      N      0.019890000000     0.231860000000     0.100840000000    -0.16645    
N17      N      0.092710000000     0.016600000000     0.282560000000    -0.161857   
N18      N      0.154730000000     0.009150000000     0.261460000000    -0.162987   
N19      N      0.405400000000     0.497130000000     0.255570000000    -0.157762   
N20      N      0.344320000000     0.514860000000     0.272150000000    -0.165578   
N21      N      0.510810000000     0.412620000000     0.269160000000    -0.143769   
N22      N      0.492080000000     0.351630000000     0.255710000000    -0.164648   
N23      N      0.994910000000     0.099750000000     0.268260000000    -0.155687   
N24      N      0.995850000000     0.165730000000     0.267710000000    -0.160555   
N25      N      0.359690000000     0.232990000000     0.020580000000    -0.157172   
N26      N      0.421870000000     0.248630000000     0.003750000000    -0.16757    
N27      N      0.110650000000     0.223980000000     0.501760000000    -0.15923    
N28      N      0.169390000000     0.247970000000     0.520490000000    -0.163081   
N29      N      0.273920000000     0.397770000000     0.013110000000    -0.160502   
N30      N      0.278400000000     0.333220000000     0.021970000000    -0.167322   
N31      N      0.257600000000     0.084340000000     0.508820000000    -0.144158   
N32      N      0.254160000000     0.148720000000     0.521530000000    -0.163102   
N33      N      0.245020000000     0.526000000000     0.861110000000    -0.160709   
N34      N      0.263380000000     0.490450000000     0.913400000000    -0.162075   
N35      N      0.266890000000     0.994100000000     0.605280000000    -0.157101   
N36      N      0.255890000000     0.001140000000     0.671160000000    -0.165485   
N37      N      0.486190000000     0.267410000000     0.854320000000    -0.152346   
N38      N      0.511920000000     0.241950000000     0.909340000000    -0.160627   
N39      N      0.007140000000     0.251200000000     0.663540000000    -0.158079   
N40      N      0.019890000000     0.231860000000     0.600840000000    -0.16646    
N41      N      0.092710000000     0.016600000000     0.782560000000    -0.161829   
N42      N      0.154730000000     0.009150000000     0.761460000000    -0.162985   
N43      N      0.405400000000     0.497130000000     0.755570000000    -0.157749   
N44      N      0.344320000000     0.514860000000     0.772150000000    -0.165567   
N45      N      0.510810000000     0.412620000000     0.769160000000    -0.143765   
N46      N      0.492080000000     0.351630000000     0.755720000000    -0.164643   
N47      N      0.994910000000     0.099750000000     0.768260000000    -0.155661   
N48      N      0.995850000000     0.165730000000     0.767710000000    -0.160559   
N49      N      0.359690000000     0.732990000000     0.520580000000    -0.158717   
N50      N      0.421870000000     0.748630000000     0.503750000000    -0.164118   
N51      N      0.110650000000     0.723980000000     0.001760000000    -0.16164    
N52      N      0.169390000000     0.747980000000     0.020490000000    -0.165435   
N53      N      0.273920000000     0.897770000000     0.513110000000    -0.158175   
N54      N      0.278400000000     0.833220000000     0.521970000000    -0.164923   
N55      N      0.257600000000     0.584340000000     0.008820000000    -0.146794   
N56      N      0.254160000000     0.648720000000     0.021520000000    -0.161534   
N57      N      0.245020000000     0.026000000000     0.361110000000    -0.160399   
N58      N      0.263380000000     0.990450000000     0.413400000000    -0.160963   
N59      N      0.266890000000     0.494100000000     0.105280000000    -0.15856    
N60      N      0.255890000000     0.501140000000     0.171160000000    -0.164497   
N61      N      0.486190000000     0.767420000000     0.354320000000    -0.152389   
N62      N      0.511920000000     0.741950000000     0.409340000000    -0.160951   
N63      N      0.007140000000     0.751210000000     0.163540000000    -0.158088   
N64      N      0.019890000000     0.731860000000     0.100840000000    -0.166436   
N65      N      0.092710000000     0.516600000000     0.282560000000    -0.16034    
N66      N      0.154730000000     0.509150000000     0.261460000000    -0.162319   
N67      N      0.405400000000     0.997130000000     0.255570000000    -0.154733   
N68      N      0.344320000000     0.014860000000     0.272150000000    -0.166904   
N69      N      0.510810000000     0.912620000000     0.269160000000    -0.143691   
N70      N      0.492080000000     0.851630000000     0.255710000000    -0.164645   
N71      N      0.994910000000     0.599740000000     0.268260000000    -0.155777   
N72      N      0.995850000000     0.665730000000     0.267710000000    -0.16055    
N73      N      0.359690000000     0.732990000000     0.020580000000    -0.157165   
N74      N      0.421870000000     0.748630000000     0.003750000000    -0.167569   
N75      N      0.110650000000     0.723980000000     0.501760000000    -0.159178   
N76      N      0.169390000000     0.747980000000     0.520490000000    -0.16306    
N77      N      0.273920000000     0.897770000000     0.013110000000    -0.160511   
N78      N      0.278400000000     0.833220000000     0.021970000000    -0.167323   
N79      N      0.257600000000     0.584340000000     0.508820000000    -0.14403    
N80      N      0.254160000000     0.648720000000     0.521530000000    -0.163107   
N81      N      0.245020000000     0.026000000000     0.861110000000    -0.160393   
N82      N      0.263380000000     0.990450000000     0.913400000000    -0.160636   
N83      N      0.266890000000     0.494100000000     0.605280000000    -0.158573   
N84      N      0.255890000000     0.501140000000     0.671160000000    -0.16449    
N85      N      0.486190000000     0.767420000000     0.854320000000    -0.152351   
N86      N      0.511920000000     0.741950000000     0.909340000000    -0.160622   
N87      N      0.007140000000     0.751210000000     0.663540000000    -0.158084   
N88      N      0.019890000000     0.731860000000     0.600840000000    -0.166447   
N89      N      0.092710000000     0.516600000000     0.782560000000    -0.160306   
N90      N      0.154730000000     0.509150000000     0.761460000000    -0.162314   
N91      N      0.405400000000     0.997130000000     0.755570000000    -0.154708   
N92      N      0.344320000000     0.014860000000     0.772150000000    -0.166898   
N93      N      0.510810000000     0.912620000000     0.769160000000    -0.143687   
N94      N      0.492080000000     0.851630000000     0.755720000000    -0.16464    
N95      N      0.994910000000     0.599740000000     0.768260000000    -0.155751   
N96      N      0.995850000000     0.665730000000     0.767710000000    -0.160555   
N97      N      0.859680000000     0.232990000000     0.520580000000    -0.158795   
N98      N      0.921870000000     0.248630000000     0.503750000000    -0.164055   
N99      N      0.610650000000     0.223980000000     0.001760000000    -0.161689   
N100     N      0.669390000000     0.247970000000     0.020490000000    -0.165449   
N101     N      0.773930000000     0.397770000000     0.513110000000    -0.158148   
N102     N      0.778400000000     0.333220000000     0.521970000000    -0.164922   
N103     N      0.757600000000     0.084340000000     0.008820000000    -0.146929   
N104     N      0.754160000000     0.148720000000     0.021520000000    -0.161517   
N105     N      0.745020000000     0.526000000000     0.361110000000    -0.160716   
N106     N      0.763380000000     0.490450000000     0.413400000000    -0.162396   
N107     N      0.766890000000     0.994100000000     0.105280000000    -0.157076   
N108     N      0.755890000000     0.001140000000     0.171160000000    -0.165493   
N109     N      0.986190000000     0.267410000000     0.354320000000    -0.151851   
N110     N      0.011920000000     0.241950000000     0.409340000000    -0.161632   
N111     N      0.507140000000     0.251200000000     0.163540000000    -0.157854   
N112     N      0.519890000000     0.231860000000     0.100840000000    -0.165872   
N113     N      0.592710000000     0.016600000000     0.282560000000    -0.161834   
N114     N      0.654730000000     0.009150000000     0.261460000000    -0.16305    
N115     N      0.905400000000     0.497130000000     0.255570000000    -0.157724   
N116     N      0.844320000000     0.514860000000     0.272150000000    -0.165587   
N117     N      0.010810000000     0.412620000000     0.269160000000    -0.143506   
N118     N      0.992080000000     0.351630000000     0.255710000000    -0.164299   
N119     N      0.494910000000     0.099750000000     0.268260000000    -0.156173   
N120     N      0.495850000000     0.165730000000     0.267710000000    -0.160868   
N121     N      0.859680000000     0.232990000000     0.020580000000    -0.157251   
N122     N      0.921870000000     0.248630000000     0.003750000000    -0.167485   
N123     N      0.610650000000     0.223980000000     0.501760000000    -0.159235   
N124     N      0.669390000000     0.247970000000     0.520490000000    -0.16308    
N125     N      0.773930000000     0.397770000000     0.013110000000    -0.160478   
N126     N      0.778400000000     0.333220000000     0.021970000000    -0.167314   
N127     N      0.757600000000     0.084340000000     0.508820000000    -0.144182   
N128     N      0.754160000000     0.148720000000     0.521530000000    -0.163082   
N129     N      0.745020000000     0.526000000000     0.861110000000    -0.160711   
N130     N      0.763380000000     0.490450000000     0.913400000000    -0.162074   
N131     N      0.766890000000     0.994100000000     0.605280000000    -0.157081   
N132     N      0.755890000000     0.001140000000     0.671160000000    -0.165493   
N133     N      0.986190000000     0.267410000000     0.854320000000    -0.151821   
N134     N      0.011920000000     0.241950000000     0.909340000000    -0.161294   
N135     N      0.507140000000     0.251200000000     0.663540000000    -0.157852   
N136     N      0.519890000000     0.231860000000     0.600840000000    -0.165888   
N137     N      0.592710000000     0.016600000000     0.782560000000    -0.161807   
N138     N      0.654730000000     0.009150000000     0.761460000000    -0.163048   
N139     N      0.905400000000     0.497130000000     0.755570000000    -0.157711   
N140     N      0.844320000000     0.514860000000     0.772150000000    -0.165576   
N141     N      0.010810000000     0.412620000000     0.769160000000    -0.143506   
N142     N      0.992080000000     0.351630000000     0.755720000000    -0.164299   
N143     N      0.494910000000     0.099750000000     0.768260000000    -0.156141   
N144     N      0.495850000000     0.165730000000     0.767710000000    -0.160868   
N145     N      0.859680000000     0.732990000000     0.520580000000    -0.158791   
N146     N      0.921870000000     0.748630000000     0.503750000000    -0.164047   
N147     N      0.610650000000     0.723980000000     0.001760000000    -0.161644   
N148     N      0.669390000000     0.747980000000     0.020490000000    -0.165433   
N149     N      0.773930000000     0.897770000000     0.513110000000    -0.158155   
N150     N      0.778400000000     0.833220000000     0.521970000000    -0.164922   
N151     N      0.757600000000     0.584340000000     0.008820000000    -0.146814   
N152     N      0.754160000000     0.648720000000     0.021520000000    -0.161517   
N153     N      0.745020000000     0.026000000000     0.361110000000    -0.160401   
N154     N      0.763380000000     0.990450000000     0.413400000000    -0.160963   
N155     N      0.766890000000     0.494100000000     0.105280000000    -0.158538   
N156     N      0.755890000000     0.501140000000     0.171160000000    -0.164506   
N157     N      0.986190000000     0.767420000000     0.354320000000    -0.151857   
N158     N      0.011920000000     0.741950000000     0.409340000000    -0.161626   
N159     N      0.507140000000     0.751210000000     0.163540000000    -0.15786    
N160     N      0.519890000000     0.731860000000     0.100840000000    -0.165859   
N161     N      0.592710000000     0.516600000000     0.282560000000    -0.160315   
N162     N      0.654730000000     0.509150000000     0.261460000000    -0.162383   
N163     N      0.905400000000     0.997130000000     0.255570000000    -0.154705   
N164     N      0.844320000000     0.014860000000     0.272150000000    -0.166909   
N165     N      0.010810000000     0.912620000000     0.269160000000    -0.143429   
N166     N      0.992080000000     0.851630000000     0.255710000000    -0.164297   
N167     N      0.494910000000     0.599740000000     0.268260000000    -0.156263   
N168     N      0.495850000000     0.665730000000     0.267710000000    -0.160863   
N169     N      0.859680000000     0.732990000000     0.020580000000    -0.157243   
N170     N      0.921870000000     0.748630000000     0.003750000000    -0.167484   
N171     N      0.610650000000     0.723980000000     0.501760000000    -0.159183   
N172     N      0.669390000000     0.747980000000     0.520490000000    -0.163059   
N173     N      0.773930000000     0.897770000000     0.013110000000    -0.160487   
N174     N      0.778400000000     0.833220000000     0.021970000000    -0.167315   
N175     N      0.757600000000     0.584340000000     0.508820000000    -0.144055   
N176     N      0.754160000000     0.648720000000     0.521530000000    -0.163088   
N177     N      0.745020000000     0.026000000000     0.861110000000    -0.160395   
N178     N      0.763380000000     0.990450000000     0.913400000000    -0.160636   
N179     N      0.766890000000     0.494100000000     0.605280000000    -0.158551   
N180     N      0.755890000000     0.501140000000     0.671160000000    -0.164499   
N181     N      0.986190000000     0.767420000000     0.854320000000    -0.151826   
N182     N      0.011920000000     0.741950000000     0.909340000000    -0.161288   
N183     N      0.507140000000     0.751210000000     0.663540000000    -0.157857   
N184     N      0.519890000000     0.731860000000     0.600840000000    -0.165875   
N185     N      0.592710000000     0.516600000000     0.782560000000    -0.160281   
N186     N      0.654730000000     0.509150000000     0.761460000000    -0.162378   
N187     N      0.905400000000     0.997130000000     0.755570000000    -0.15468    
N188     N      0.844320000000     0.014860000000     0.772150000000    -0.166903   
N189     N      0.010810000000     0.912620000000     0.769160000000    -0.143429   
N190     N      0.992080000000     0.851630000000     0.755720000000    -0.164297   
N191     N      0.494910000000     0.599740000000     0.768260000000    -0.15623    
N192     N      0.495850000000     0.665730000000     0.767710000000    -0.160864   
O1       O      0.993870000000     0.053280000000     0.295070000000    -0.378227   
O2       O      0.999450000000     0.458610000000     0.297000000000    -0.298155   
O3       O      0.043180000000     0.508610000000     0.302370000000    -0.381126   
O4       O      0.448360000000     0.001820000000     0.288710000000    -0.367971   
O5       O      0.455470000000     0.002760000000     0.235940000000    -0.381497   
O6       O      0.049960000000     0.512580000000     0.249680000000    -0.395018   
O7       O      0.507940000000     0.459990000000     0.244210000000    -0.382731   
O8       O      0.498150000000     0.053490000000     0.241960000000    -0.383778   
O9       O      0.471000000000     0.211250000000     0.256510000000    -0.391999   
O10      O      0.467740000000     0.304610000000     0.256120000000    -0.393404   
O11      O      0.475360000000     0.256340000000     0.207740000000    -0.388375   
O12      O      0.464330000000     0.257270000000     0.304470000000    -0.317094   
O13      O      0.015960000000     0.268100000000     0.308900000000    -0.38742    
O14      O      0.027550000000     0.253810000000     0.214210000000    -0.373774   
O15      O      0.020470000000     0.306760000000     0.254350000000    -0.380706   
O16      O      0.022080000000     0.212920000000     0.269470000000    -0.384123   
O17      O      0.297510000000     0.488610000000     0.274110000000    -0.39847    
O18      O      0.202570000000     0.485610000000     0.267490000000    -0.391602   
O19      O      0.252670000000     0.480730000000     0.221920000000    -0.391958   
O20      O      0.246200000000     0.493690000000     0.317970000000    -0.384532   
O21      O      0.247960000000     0.045010000000     0.310450000000    -0.386269   
O22      O      0.252290000000     0.032070000000     0.215100000000    -0.398472   
O23      O      0.201280000000     0.036790000000     0.259730000000    -0.386597   
O24      O      0.297240000000     0.039470000000     0.263920000000    -0.392964   
O25      O      0.234500000000     0.034950000000     0.003930000000    -0.315597   
O26      O      0.243960000000     0.441730000000     0.014480000000    -0.393808   
O27      O      0.239800000000     0.491560000000     0.058260000000    -0.381457   
O28      O      0.239180000000     0.983900000000     0.461820000000    -0.396408   
O29      O      0.290670000000     0.994680000000     0.460570000000    -0.382682   
O30      O      0.292610000000     0.492460000000     0.057370000000    -0.381514   
O31      O      0.296020000000     0.446080000000     0.507450000000    -0.370958   
O32      O      0.286780000000     0.039580000000     0.510790000000    -0.376712   
O33      O      0.067520000000     0.255950000000     0.001960000000    -0.377734   
O34      O      0.472150000000     0.267950000000     0.010520000000    -0.387546   
O35      O      0.524410000000     0.259090000000     0.054380000000    -0.394312   
O36      O      0.017310000000     0.264770000000     0.458200000000    -0.384972   
O37      O      0.012140000000     0.213250000000     0.455320000000    -0.384067   
O38      O      0.510430000000     0.209180000000     0.052360000000    -0.391504   
O39      O      0.465140000000     0.217300000000     0.501910000000    -0.39455    
O40      O      0.060250000000     0.204760000000     0.505280000000    -0.383967   
O41      O      0.264360000000     0.194090000000     0.047450000000    -0.389421   
O42      O      0.265680000000     0.288020000000     0.047630000000    -0.392344   
O43      O      0.216370000000     0.241330000000     0.047480000000    -0.385855   
O44      O      0.312890000000     0.240610000000     0.047210000000    -0.386743   
O45      O      0.311680000000     0.232440000000     0.494760000000    -0.369908   
O46      O      0.217300000000     0.249780000000     0.494980000000    -0.391044   
O47      O      0.273980000000     0.287150000000     0.495070000000    -0.39111    
O48      O      0.254750000000     0.194940000000     0.495020000000    -0.382418   
O49      O      0.380810000000     0.159700000000     0.459230000000    -0.170637   
O50      O      0.341340000000     0.206180000000     0.443660000000    -0.149528   
O51      O      0.327460000000     0.168180000000     0.493920000000    -0.262561   
O52      O      0.138120000000     0.259790000000     0.414420000000    -0.173504   
O53      O      0.094210000000     0.287060000000     0.451440000000    -0.160059   
O54      O      0.084860000000     0.227990000000     0.429780000000    -0.269816   
O55      O      0.330390000000     0.372240000000     0.435860000000    -0.167772   
O56      O      0.345450000000     0.409960000000     0.484700000000    -0.15147    
O57      O      0.300210000000     0.427340000000     0.441810000000    -0.256742   
O58      O      0.168940000000     0.089960000000     0.971560000000    -0.177874   
O59      O      0.180600000000     0.079750000000     0.034780000000    -0.167009   
O60      O      0.209580000000     0.044600000000     0.489980000000    -0.204948   
O61      O      0.155140000000     0.000670000000     0.387360000000    -0.179222   
O62      O      0.186380000000     0.971680000000     0.339910000000    -0.156931   
O63      O      0.176170000000     0.034150000000     0.336490000000    -0.272144   
O64      O      0.304440000000     0.081060000000     0.123340000000    -0.1809     
O65      O      0.261640000000     0.062490000000     0.079860000000    -0.168031   
O66      O      0.323580000000     0.045060000000     0.073990000000    -0.264955   
O67      O      0.402970000000     0.226160000000     0.365910000000    -0.165466   
O68      O      0.449510000000     0.191590000000     0.338370000000    -0.169957   
O69      O      0.437940000000     0.250120000000     0.317180000000    -0.198607   
O70      O      0.085700000000     0.305730000000     0.140700000000    -0.180197   
O71      O      0.084700000000     0.259730000000     0.184270000000    -0.168268   
O72      O      0.048900000000     0.311850000000     0.193120000000    -0.272288   
O73      O      0.121860000000     0.438810000000     0.333810000000    -0.15834    
O74      O      0.072070000000     0.443330000000     0.294370000000    -0.170757   
O75      O      0.073090000000     0.476130000000     0.350350000000    -0.264326   
O76      O      0.381110000000     0.418050000000     0.305700000000    -0.165975   
O77      O      0.418600000000     0.462600000000     0.330300000000    -0.143841   
O78      O      0.435910000000     0.432610000000     0.275420000000    -0.261661   
O79      O      0.512090000000     0.395920000000     0.361830000000    -0.166941   
O80      O      0.453900000000     0.407260000000     0.337680000000    -0.144169   
O81      O      0.003170000000     0.446120000000     0.324330000000    -0.200392   
O82      O      0.416100000000     0.122090000000     0.215610000000    -0.179402   
O83      O      0.426590000000     0.079250000000     0.261070000000    -0.171101   
O84      O      0.450950000000     0.071190000000     0.201270000000    -0.264764   
O85      O      0.993870000000     0.053280000000     0.795070000000    -0.378108   
O86      O      0.999450000000     0.458610000000     0.797000000000    -0.298189   
O87      O      0.043180000000     0.508610000000     0.802370000000    -0.380961   
O88      O      0.448360000000     0.001820000000     0.788710000000    -0.367921   
O89      O      0.455470000000     0.002760000000     0.735940000000    -0.381445   
O90      O      0.049960000000     0.512580000000     0.749680000000    -0.395088   
O91      O      0.507940000000     0.459990000000     0.744210000000    -0.382692   
O92      O      0.498150000000     0.053490000000     0.741960000000    -0.383746   
O93      O      0.471000000000     0.211250000000     0.756510000000    -0.392011   
O94      O      0.467740000000     0.304610000000     0.756120000000    -0.393396   
O95      O      0.475360000000     0.256340000000     0.707740000000    -0.388375   
O96      O      0.464330000000     0.257270000000     0.804470000000    -0.317086   
O97      O      0.015960000000     0.268100000000     0.808900000000    -0.387402   
O98      O      0.027550000000     0.253810000000     0.714210000000    -0.373783   
O99      O      0.020470000000     0.306760000000     0.754350000000    -0.380689   
O100     O      0.022080000000     0.212920000000     0.769470000000    -0.384116   
O101     O      0.297510000000     0.488610000000     0.774110000000    -0.398472   
O102     O      0.202570000000     0.485610000000     0.767490000000    -0.391603   
O103     O      0.252670000000     0.480730000000     0.721920000000    -0.391963   
O104     O      0.246200000000     0.493690000000     0.817970000000    -0.384528   
O105     O      0.247960000000     0.045010000000     0.810450000000    -0.386252   
O106     O      0.252290000000     0.032070000000     0.715100000000    -0.398474   
O107     O      0.201280000000     0.036790000000     0.759730000000    -0.386596   
O108     O      0.297240000000     0.039470000000     0.763920000000    -0.392964   
O109     O      0.234500000000     0.034950000000     0.503940000000    -0.31169    
O110     O      0.243960000000     0.441730000000     0.514480000000    -0.393267   
O111     O      0.239800000000     0.491560000000     0.558260000000    -0.382053   
O112     O      0.239180000000     0.983900000000     0.961820000000    -0.392502   
O113     O      0.290670000000     0.994680000000     0.960570000000    -0.378717   
O114     O      0.292610000000     0.492460000000     0.557370000000    -0.382174   
O115     O      0.296020000000     0.446080000000     0.007450000000    -0.372526   
O116     O      0.286780000000     0.039580000000     0.010790000000    -0.377347   
O117     O      0.067520000000     0.255950000000     0.501960000000    -0.376452   
O118     O      0.472150000000     0.267950000000     0.510520000000    -0.386934   
O119     O      0.524410000000     0.259090000000     0.554380000000    -0.39499    
O120     O      0.017310000000     0.264770000000     0.958200000000    -0.380936   
O121     O      0.012140000000     0.213250000000     0.955320000000    -0.380046   
O122     O      0.510430000000     0.209180000000     0.552360000000    -0.392103   
O123     O      0.465140000000     0.217300000000     0.001910000000    -0.395929   
O124     O      0.060250000000     0.204760000000     0.005280000000    -0.384702   
O125     O      0.264360000000     0.194090000000     0.547450000000    -0.391244   
O126     O      0.265680000000     0.288020000000     0.547630000000    -0.393894   
O127     O      0.216370000000     0.241330000000     0.547480000000    -0.387392   
O128     O      0.312890000000     0.240610000000     0.547210000000    -0.388473   
O129     O      0.311680000000     0.232440000000     0.994760000000    -0.364563   
O130     O      0.217300000000     0.249780000000     0.994980000000    -0.385999   
O131     O      0.273980000000     0.287150000000     0.995070000000    -0.385928   
O132     O      0.254750000000     0.194940000000     0.995020000000    -0.377111   
O133     O      0.380810000000     0.159700000000     0.959230000000    -0.169621   
O134     O      0.341340000000     0.206180000000     0.943660000000    -0.150035   
O135     O      0.327460000000     0.168180000000     0.993920000000    -0.25714    
O136     O      0.138120000000     0.259790000000     0.914420000000    -0.173416   
O137     O      0.094210000000     0.287060000000     0.951440000000    -0.15804    
O138     O      0.084860000000     0.227990000000     0.929780000000    -0.268996   
O139     O      0.330390000000     0.372240000000     0.935860000000    -0.167233   
O140     O      0.345450000000     0.409960000000     0.984700000000    -0.148476   
O141     O      0.300210000000     0.427340000000     0.941810000000    -0.255787   
O142     O      0.168940000000     0.089960000000     0.471560000000    -0.179029   
O143     O      0.180600000000     0.079750000000     0.534780000000    -0.16327    
O144     O      0.209580000000     0.044600000000     0.989980000000    -0.200558   
O145     O      0.155140000000     0.000670000000     0.887360000000    -0.178619   
O146     O      0.186380000000     0.971680000000     0.839910000000    -0.156833   
O147     O      0.176170000000     0.034150000000     0.836490000000    -0.27216    
O148     O      0.304440000000     0.081060000000     0.623340000000    -0.180827   
O149     O      0.261640000000     0.062490000000     0.579860000000    -0.168032   
O150     O      0.323580000000     0.045060000000     0.573990000000    -0.264632   
O151     O      0.402970000000     0.226160000000     0.865910000000    -0.165234   
O152     O      0.449510000000     0.191590000000     0.838370000000    -0.16983    
O153     O      0.437940000000     0.250120000000     0.817180000000    -0.198632   
O154     O      0.085700000000     0.305730000000     0.640700000000    -0.179977   
O155     O      0.084700000000     0.259730000000     0.684270000000    -0.168272   
O156     O      0.048900000000     0.311850000000     0.693130000000    -0.272275   
O157     O      0.121860000000     0.438810000000     0.833810000000    -0.158101   
O158     O      0.072070000000     0.443330000000     0.794370000000    -0.170732   
O159     O      0.073090000000     0.476130000000     0.850350000000    -0.264093   
O160     O      0.381110000000     0.418050000000     0.805700000000    -0.165879   
O161     O      0.418600000000     0.462600000000     0.830300000000    -0.143546   
O162     O      0.435910000000     0.432610000000     0.775410000000    -0.261769   
O163     O      0.512090000000     0.395920000000     0.861830000000    -0.166358   
O164     O      0.453900000000     0.407260000000     0.837690000000    -0.143883   
O165     O      0.003170000000     0.446120000000     0.824330000000    -0.20034    
O166     O      0.416100000000     0.122090000000     0.715610000000    -0.179376   
O167     O      0.426590000000     0.079250000000     0.761070000000    -0.171063   
O168     O      0.450950000000     0.071190000000     0.701270000000    -0.264711   
O169     O      0.993870000000     0.553280000000     0.295070000000    -0.378558   
O170     O      0.999450000000     0.958610000000     0.297000000000    -0.296363   
O171     O      0.043180000000     0.008610000000     0.302370000000    -0.381825   
O172     O      0.448360000000     0.501820000000     0.288710000000    -0.367861   
O173     O      0.455470000000     0.502760000000     0.235940000000    -0.381642   
O174     O      0.049960000000     0.012580000000     0.249680000000    -0.395346   
O175     O      0.507940000000     0.960000000000     0.244210000000    -0.380738   
O176     O      0.498150000000     0.553490000000     0.241960000000    -0.384129   
O177     O      0.471000000000     0.711260000000     0.256510000000    -0.392051   
O178     O      0.467740000000     0.804610000000     0.256120000000    -0.393407   
O179     O      0.475360000000     0.756340000000     0.207740000000    -0.388385   
O180     O      0.464330000000     0.757280000000     0.304470000000    -0.31716    
O181     O      0.015960000000     0.768100000000     0.308900000000    -0.387439   
O182     O      0.027550000000     0.753810000000     0.214210000000    -0.373782   
O183     O      0.020470000000     0.806760000000     0.254350000000    -0.380704   
O184     O      0.022080000000     0.712920000000     0.269470000000    -0.384103   
O185     O      0.297510000000     0.988610000000     0.274110000000    -0.396079   
O186     O      0.202570000000     0.985610000000     0.267490000000    -0.389203   
O187     O      0.252670000000     0.980730000000     0.221920000000    -0.389506   
O188     O      0.246200000000     0.993690000000     0.317970000000    -0.381958   
O189     O      0.247960000000     0.545010000000     0.310450000000    -0.38711    
O190     O      0.252290000000     0.532070000000     0.215100000000    -0.399218   
O191     O      0.201280000000     0.536790000000     0.259730000000    -0.387344   
O192     O      0.297240000000     0.539470000000     0.263920000000    -0.393721   
O193     O      0.234500000000     0.534950000000     0.003930000000    -0.313865   
O194     O      0.243960000000     0.941730000000     0.014480000000    -0.394135   
O195     O      0.239800000000     0.991560000000     0.058260000000    -0.380992   
O196     O      0.239180000000     0.483900000000     0.461820000000    -0.396755   
O197     O      0.290670000000     0.494680000000     0.460570000000    -0.3834     
O198     O      0.292610000000     0.992460000000     0.057370000000    -0.380837   
O199     O      0.296020000000     0.946080000000     0.507450000000    -0.371263   
O200     O      0.286780000000     0.539580000000     0.510790000000    -0.374868   
O201     O      0.067520000000     0.755960000000     0.001960000000    -0.377568   
O202     O      0.472150000000     0.767950000000     0.010520000000    -0.387508   
O203     O      0.524410000000     0.759090000000     0.054380000000    -0.39428    
O204     O      0.017310000000     0.764770000000     0.458200000000    -0.384951   
O205     O      0.012140000000     0.713250000000     0.455320000000    -0.384037   
O206     O      0.510430000000     0.709180000000     0.052360000000    -0.391464   
O207     O      0.465140000000     0.717300000000     0.501910000000    -0.394523   
O208     O      0.060250000000     0.704760000000     0.505280000000    -0.383865   
O209     O      0.264360000000     0.694090000000     0.047450000000    -0.389403   
O210     O      0.265680000000     0.788030000000     0.047630000000    -0.392305   
O211     O      0.216370000000     0.741330000000     0.047480000000    -0.385839   
O212     O      0.312890000000     0.740610000000     0.047210000000    -0.386731   
O213     O      0.311680000000     0.732440000000     0.494760000000    -0.369914   
O214     O      0.217300000000     0.749780000000     0.494980000000    -0.391046   
O215     O      0.273980000000     0.787150000000     0.495070000000    -0.391143   
O216     O      0.254750000000     0.694940000000     0.495020000000    -0.382422   
O217     O      0.380810000000     0.659700000000     0.459230000000    -0.170494   
O218     O      0.341340000000     0.706180000000     0.443660000000    -0.149532   
O219     O      0.327460000000     0.668180000000     0.493920000000    -0.262554   
O220     O      0.138120000000     0.759790000000     0.414420000000    -0.173506   
O221     O      0.094210000000     0.787060000000     0.451440000000    -0.159999   
O222     O      0.084860000000     0.727990000000     0.429780000000    -0.269814   
O223     O      0.330390000000     0.872240000000     0.435860000000    -0.167692   
O224     O      0.345450000000     0.909960000000     0.484700000000    -0.151164   
O225     O      0.300210000000     0.927340000000     0.441810000000    -0.256527   
O226     O      0.168940000000     0.589960000000     0.971560000000    -0.177671   
O227     O      0.180600000000     0.579750000000     0.034780000000    -0.166643   
O228     O      0.209580000000     0.544600000000     0.489980000000    -0.20511    
O229     O      0.155140000000     0.500670000000     0.387360000000    -0.178217   
O230     O      0.186380000000     0.471680000000     0.339910000000    -0.158758   
O231     O      0.176170000000     0.534150000000     0.336490000000    -0.27215    
O232     O      0.304440000000     0.581060000000     0.123340000000    -0.180877   
O233     O      0.261640000000     0.562490000000     0.079860000000    -0.167516   
O234     O      0.323580000000     0.545060000000     0.073990000000    -0.264337   
O235     O      0.402970000000     0.726160000000     0.365910000000    -0.165469   
O236     O      0.449510000000     0.691590000000     0.338370000000    -0.169937   
O237     O      0.437940000000     0.750120000000     0.317180000000    -0.198625   
O238     O      0.085700000000     0.805730000000     0.140700000000    -0.180104   
O239     O      0.084700000000     0.759740000000     0.184270000000    -0.16831    
O240     O      0.048900000000     0.811850000000     0.193120000000    -0.272262   
O241     O      0.121860000000     0.938810000000     0.333810000000    -0.158022   
O242     O      0.072070000000     0.943330000000     0.294370000000    -0.170305   
O243     O      0.073090000000     0.976130000000     0.350350000000    -0.263542   
O244     O      0.381110000000     0.918050000000     0.305700000000    -0.165997   
O245     O      0.418600000000     0.962600000000     0.330300000000    -0.142873   
O246     O      0.435910000000     0.932610000000     0.275420000000    -0.261377   
O247     O      0.512090000000     0.895920000000     0.361830000000    -0.16677    
O248     O      0.453900000000     0.907260000000     0.337680000000    -0.144033   
O249     O      0.003170000000     0.946120000000     0.324330000000    -0.200589   
O250     O      0.416100000000     0.622090000000     0.215610000000    -0.179374   
O251     O      0.426590000000     0.579240000000     0.261070000000    -0.171033   
O252     O      0.450950000000     0.571190000000     0.201270000000    -0.264611   
O253     O      0.993870000000     0.553280000000     0.795070000000    -0.37844    
O254     O      0.999450000000     0.958610000000     0.797000000000    -0.29639    
O255     O      0.043180000000     0.008610000000     0.802370000000    -0.381663   
O256     O      0.448360000000     0.501820000000     0.788710000000    -0.367811   
O257     O      0.455470000000     0.502760000000     0.735940000000    -0.38159    
O258     O      0.049960000000     0.012580000000     0.749680000000    -0.395418   
O259     O      0.507940000000     0.960000000000     0.744210000000    -0.38069    
O260     O      0.498150000000     0.553490000000     0.741960000000    -0.384098   
O261     O      0.471000000000     0.711260000000     0.756510000000    -0.392063   
O262     O      0.467740000000     0.804610000000     0.756120000000    -0.393399   
O263     O      0.475360000000     0.756340000000     0.707740000000    -0.388385   
O264     O      0.464330000000     0.757280000000     0.804470000000    -0.317152   
O265     O      0.015960000000     0.768100000000     0.808900000000    -0.387421   
O266     O      0.027550000000     0.753810000000     0.714210000000    -0.373791   
O267     O      0.020470000000     0.806760000000     0.754350000000    -0.380688   
O268     O      0.022080000000     0.712920000000     0.769470000000    -0.384096   
O269     O      0.297510000000     0.988610000000     0.774110000000    -0.396072   
O270     O      0.202570000000     0.985610000000     0.767490000000    -0.389194   
O271     O      0.252670000000     0.980730000000     0.721920000000    -0.3895     
O272     O      0.246200000000     0.993690000000     0.817970000000    -0.381946   
O273     O      0.247960000000     0.545010000000     0.810450000000    -0.387097   
O274     O      0.252290000000     0.532070000000     0.715100000000    -0.399224   
O275     O      0.201280000000     0.536790000000     0.759730000000    -0.387347   
O276     O      0.297240000000     0.539470000000     0.763920000000    -0.393723   
O277     O      0.234500000000     0.534950000000     0.503940000000    -0.309925   
O278     O      0.243960000000     0.941730000000     0.514480000000    -0.393596   
O279     O      0.239800000000     0.991560000000     0.558260000000    -0.381585   
O280     O      0.239180000000     0.483900000000     0.961820000000    -0.39285    
O281     O      0.290670000000     0.494680000000     0.960570000000    -0.379435   
O282     O      0.292610000000     0.992460000000     0.557370000000    -0.381494   
O283     O      0.296020000000     0.946080000000     0.007450000000    -0.372829   
O284     O      0.286780000000     0.539580000000     0.010790000000    -0.375521   
O285     O      0.067520000000     0.755960000000     0.501960000000    -0.376283   
O286     O      0.472150000000     0.767950000000     0.510520000000    -0.386895   
O287     O      0.524410000000     0.759090000000     0.554380000000    -0.39496    
O288     O      0.017310000000     0.764770000000     0.958200000000    -0.380908   
O289     O      0.012140000000     0.713250000000     0.955320000000    -0.380005   
O290     O      0.510430000000     0.709180000000     0.552360000000    -0.392064   
O291     O      0.465140000000     0.717300000000     0.001910000000    -0.395906   
O292     O      0.060250000000     0.704760000000     0.005280000000    -0.384602   
O293     O      0.264360000000     0.694090000000     0.547450000000    -0.39123    
O294     O      0.265680000000     0.788030000000     0.547630000000    -0.393858   
O295     O      0.216370000000     0.741330000000     0.547480000000    -0.387378   
O296     O      0.312890000000     0.740610000000     0.547210000000    -0.388465   
O297     O      0.311680000000     0.732440000000     0.994760000000    -0.364558   
O298     O      0.217300000000     0.749780000000     0.994980000000    -0.385991   
O299     O      0.273980000000     0.787150000000     0.995070000000    -0.385954   
O300     O      0.254750000000     0.694940000000     0.995020000000    -0.377101   
O301     O      0.380810000000     0.659700000000     0.959230000000    -0.169475   
O302     O      0.341340000000     0.706180000000     0.943660000000    -0.15004    
O303     O      0.327460000000     0.668180000000     0.993920000000    -0.257117   
O304     O      0.138120000000     0.759790000000     0.914420000000    -0.173418   
O305     O      0.094210000000     0.787060000000     0.951440000000    -0.157977   
O306     O      0.084860000000     0.727990000000     0.929780000000    -0.268992   
O307     O      0.330390000000     0.872240000000     0.935860000000    -0.167152   
O308     O      0.345450000000     0.909960000000     0.984700000000    -0.14817    
O309     O      0.300210000000     0.927340000000     0.941810000000    -0.255572   
O310     O      0.168940000000     0.589960000000     0.471560000000    -0.17883    
O311     O      0.180600000000     0.579750000000     0.534780000000    -0.162885   
O312     O      0.209580000000     0.544600000000     0.989980000000    -0.200698   
O313     O      0.155140000000     0.500670000000     0.887360000000    -0.177608   
O314     O      0.186380000000     0.471680000000     0.839910000000    -0.158666   
O315     O      0.176170000000     0.534150000000     0.836490000000    -0.272166   
O316     O      0.304440000000     0.581060000000     0.623340000000    -0.180803   
O317     O      0.261640000000     0.562490000000     0.579860000000    -0.167513   
O318     O      0.323580000000     0.545060000000     0.573990000000    -0.264008   
O319     O      0.402970000000     0.726160000000     0.865910000000    -0.165236   
O320     O      0.449510000000     0.691590000000     0.838370000000    -0.16981    
O321     O      0.437940000000     0.750120000000     0.817180000000    -0.198651   
O322     O      0.085700000000     0.805730000000     0.640700000000    -0.179884   
O323     O      0.084700000000     0.759740000000     0.684270000000    -0.168314   
O324     O      0.048900000000     0.811850000000     0.693130000000    -0.272249   
O325     O      0.121860000000     0.938810000000     0.833810000000    -0.157782   
O326     O      0.072070000000     0.943330000000     0.794370000000    -0.170278   
O327     O      0.073090000000     0.976130000000     0.850350000000    -0.263307   
O328     O      0.381110000000     0.918050000000     0.805700000000    -0.165901   
O329     O      0.418600000000     0.962600000000     0.830300000000    -0.142575   
O330     O      0.435910000000     0.932610000000     0.775410000000    -0.261484   
O331     O      0.512090000000     0.895920000000     0.861830000000    -0.166187   
O332     O      0.453900000000     0.907260000000     0.837690000000    -0.143747   
O333     O      0.003170000000     0.946120000000     0.824330000000    -0.200539   
O334     O      0.416100000000     0.622090000000     0.715610000000    -0.179347   
O335     O      0.426590000000     0.579240000000     0.761070000000    -0.170995   
O336     O      0.450950000000     0.571190000000     0.701270000000    -0.264557   
O337     O      0.493870000000     0.053280000000     0.295070000000    -0.378447   
O338     O      0.499440000000     0.458610000000     0.297000000000    -0.299816   
O339     O      0.543180000000     0.508610000000     0.302370000000    -0.38048    
O340     O      0.948370000000     0.001820000000     0.288710000000    -0.368126   
O341     O      0.955470000000     0.002760000000     0.235940000000    -0.380776   
O342     O      0.549960000000     0.512580000000     0.249680000000    -0.395122   
O343     O      0.007940000000     0.459990000000     0.244210000000    -0.382383   
O344     O      0.998150000000     0.053490000000     0.241960000000    -0.382928   
O345     O      0.971000000000     0.211250000000     0.256510000000    -0.392262   
O346     O      0.967740000000     0.304610000000     0.256120000000    -0.393662   
O347     O      0.975360000000     0.256340000000     0.207740000000    -0.387557   
O348     O      0.964330000000     0.257270000000     0.304470000000    -0.317336   
O349     O      0.515960000000     0.268100000000     0.308900000000    -0.386603   
O350     O      0.527550000000     0.253810000000     0.214210000000    -0.373972   
O351     O      0.520470000000     0.306760000000     0.254350000000    -0.379887   
O352     O      0.522080000000     0.212920000000     0.269470000000    -0.38326    
O353     O      0.797510000000     0.488610000000     0.274110000000    -0.398473   
O354     O      0.702570000000     0.485610000000     0.267490000000    -0.391519   
O355     O      0.752670000000     0.480730000000     0.221920000000    -0.391957   
O356     O      0.746200000000     0.493690000000     0.317970000000    -0.384534   
O357     O      0.747960000000     0.045010000000     0.310450000000    -0.386271   
O358     O      0.752290000000     0.032070000000     0.215100000000    -0.398473   
O359     O      0.701280000000     0.036790000000     0.259730000000    -0.38652    
O360     O      0.797240000000     0.039470000000     0.263920000000    -0.392968   
O361     O      0.734500000000     0.034950000000     0.003930000000    -0.315591   
O362     O      0.743960000000     0.441730000000     0.014480000000    -0.393803   
O363     O      0.739800000000     0.491560000000     0.058260000000    -0.38145    
O364     O      0.739180000000     0.983900000000     0.461820000000    -0.396405   
O365     O      0.790670000000     0.994680000000     0.460570000000    -0.38267    
O366     O      0.792610000000     0.492460000000     0.057370000000    -0.381496   
O367     O      0.796020000000     0.446080000000     0.507450000000    -0.370936   
O368     O      0.786780000000     0.039580000000     0.510790000000    -0.376701   
O369     O      0.567520000000     0.255950000000     0.001960000000    -0.377862   
O370     O      0.972150000000     0.267950000000     0.010520000000    -0.386809   
O371     O      0.024420000000     0.259090000000     0.054380000000    -0.394342   
O372     O      0.517310000000     0.264770000000     0.458200000000    -0.384827   
O373     O      0.512140000000     0.213250000000     0.455320000000    -0.383874   
O374     O      0.010430000000     0.209180000000     0.052360000000    -0.391714   
O375     O      0.965140000000     0.217300000000     0.501910000000    -0.393845   
O376     O      0.560250000000     0.204760000000     0.505280000000    -0.384066   
O377     O      0.764360000000     0.194090000000     0.047450000000    -0.389422   
O378     O      0.765680000000     0.288020000000     0.047630000000    -0.392346   
O379     O      0.716370000000     0.241330000000     0.047480000000    -0.38586    
O380     O      0.812890000000     0.240610000000     0.047210000000    -0.386768   
O381     O      0.811680000000     0.232440000000     0.494760000000    -0.369937   
O382     O      0.717300000000     0.249780000000     0.494980000000    -0.391047   
O383     O      0.773980000000     0.287150000000     0.495070000000    -0.391112   
O384     O      0.754750000000     0.194940000000     0.495020000000    -0.382419   
O385     O      0.880810000000     0.159700000000     0.459230000000    -0.170527   
O386     O      0.841340000000     0.206180000000     0.443660000000    -0.14952    
O387     O      0.827460000000     0.168180000000     0.493920000000    -0.262562   
O388     O      0.638120000000     0.259790000000     0.414420000000    -0.173501   
O389     O      0.594210000000     0.287060000000     0.451440000000    -0.160023   
O390     O      0.584860000000     0.227990000000     0.429780000000    -0.269816   
O391     O      0.830390000000     0.372240000000     0.435860000000    -0.167734   
O392     O      0.845450000000     0.409960000000     0.484700000000    -0.151376   
O393     O      0.800210000000     0.427340000000     0.441810000000    -0.256726   
O394     O      0.668940000000     0.089960000000     0.971560000000    -0.177835   
O395     O      0.680600000000     0.079750000000     0.034780000000    -0.16697    
O396     O      0.709580000000     0.044600000000     0.489980000000    -0.204942   
O397     O      0.655140000000     0.000670000000     0.387360000000    -0.179184   
O398     O      0.686380000000     0.971680000000     0.339910000000    -0.156933   
O399     O      0.676170000000     0.034150000000     0.336490000000    -0.272144   
O400     O      0.804440000000     0.081060000000     0.123340000000    -0.180884   
O401     O      0.761640000000     0.062490000000     0.079860000000    -0.168036   
O402     O      0.823580000000     0.045060000000     0.073990000000    -0.264934   
O403     O      0.902970000000     0.226160000000     0.365910000000    -0.16552    
O404     O      0.949510000000     0.191590000000     0.338370000000    -0.169723   
O405     O      0.937930000000     0.250120000000     0.317180000000    -0.198763   
O406     O      0.585700000000     0.305730000000     0.140700000000    -0.180151   
O407     O      0.584700000000     0.259730000000     0.184270000000    -0.168258   
O408     O      0.548900000000     0.311850000000     0.193120000000    -0.27218    
O409     O      0.621860000000     0.438810000000     0.333810000000    -0.158319   
O410     O      0.572070000000     0.443330000000     0.294370000000    -0.170726   
O411     O      0.573090000000     0.476130000000     0.350350000000    -0.264188   
O412     O      0.881110000000     0.418050000000     0.305700000000    -0.165959   
O413     O      0.918600000000     0.462600000000     0.330300000000    -0.143772   
O414     O      0.935900000000     0.432610000000     0.275420000000    -0.261632   
O415     O      0.012090000000     0.395920000000     0.361830000000    -0.168013   
O416     O      0.953900000000     0.407260000000     0.337680000000    -0.144393   
O417     O      0.503170000000     0.446120000000     0.324330000000    -0.19848    
O418     O      0.916100000000     0.122090000000     0.215610000000    -0.179358   
O419     O      0.926590000000     0.079250000000     0.261070000000    -0.171076   
O420     O      0.950950000000     0.071190000000     0.201270000000    -0.264659   
O421     O      0.493870000000     0.053280000000     0.795070000000    -0.378324   
O422     O      0.499440000000     0.458610000000     0.797000000000    -0.299828   
O423     O      0.543180000000     0.508610000000     0.802370000000    -0.380322   
O424     O      0.948370000000     0.001820000000     0.788710000000    -0.368075   
O425     O      0.955470000000     0.002760000000     0.735940000000    -0.380732   
O426     O      0.549960000000     0.512580000000     0.749680000000    -0.395191   
O427     O      0.007940000000     0.459990000000     0.744210000000    -0.382348   
O428     O      0.998150000000     0.053490000000     0.741960000000    -0.382905   
O429     O      0.971000000000     0.211250000000     0.756510000000    -0.392271   
O430     O      0.967740000000     0.304610000000     0.756120000000    -0.393651   
O431     O      0.975360000000     0.256340000000     0.707740000000    -0.387565   
O432     O      0.964330000000     0.257270000000     0.804470000000    -0.317325   
O433     O      0.515960000000     0.268100000000     0.808900000000    -0.386595   
O434     O      0.527550000000     0.253810000000     0.714210000000    -0.373979   
O435     O      0.520470000000     0.306760000000     0.754350000000    -0.37988    
O436     O      0.522080000000     0.212920000000     0.769470000000    -0.383262   
O437     O      0.797510000000     0.488610000000     0.774110000000    -0.398475   
O438     O      0.702570000000     0.485610000000     0.767490000000    -0.39152    
O439     O      0.752670000000     0.480730000000     0.721920000000    -0.391962   
O440     O      0.746200000000     0.493690000000     0.817970000000    -0.38453    
O441     O      0.747960000000     0.045010000000     0.810450000000    -0.386254   
O442     O      0.752290000000     0.032070000000     0.715100000000    -0.398475   
O443     O      0.701280000000     0.036790000000     0.759730000000    -0.386518   
O444     O      0.797240000000     0.039470000000     0.763920000000    -0.392967   
O445     O      0.734500000000     0.034950000000     0.503940000000    -0.31169    
O446     O      0.743960000000     0.441730000000     0.514480000000    -0.393263   
O447     O      0.739800000000     0.491560000000     0.558260000000    -0.382044   
O448     O      0.739180000000     0.983900000000     0.961820000000    -0.392505   
O449     O      0.790670000000     0.994680000000     0.960570000000    -0.378715   
O450     O      0.792610000000     0.492460000000     0.557370000000    -0.382155   
O451     O      0.796020000000     0.446080000000     0.007450000000    -0.3725     
O452     O      0.786780000000     0.039580000000     0.010790000000    -0.377335   
O453     O      0.567520000000     0.255950000000     0.501960000000    -0.37658    
O454     O      0.972150000000     0.267950000000     0.510520000000    -0.386208   
O455     O      0.024420000000     0.259090000000     0.554380000000    -0.39502    
O456     O      0.517310000000     0.264770000000     0.958200000000    -0.38079    
O457     O      0.512140000000     0.213250000000     0.955320000000    -0.379852   
O458     O      0.010430000000     0.209180000000     0.552360000000    -0.392311   
O459     O      0.965140000000     0.217300000000     0.001910000000    -0.395211   
O460     O      0.560250000000     0.204760000000     0.005280000000    -0.384802   
O461     O      0.764360000000     0.194090000000     0.547450000000    -0.391242   
O462     O      0.765680000000     0.288020000000     0.547630000000    -0.393893   
O463     O      0.716370000000     0.241330000000     0.547480000000    -0.387394   
O464     O      0.812890000000     0.240610000000     0.547210000000    -0.388494   
O465     O      0.811680000000     0.232440000000     0.994760000000    -0.364607   
O466     O      0.717300000000     0.249780000000     0.994980000000    -0.386009   
O467     O      0.773980000000     0.287150000000     0.995070000000    -0.385941   
O468     O      0.754750000000     0.194940000000     0.995020000000    -0.377123   
O469     O      0.880810000000     0.159700000000     0.959230000000    -0.169517   
O470     O      0.841340000000     0.206180000000     0.943660000000    -0.150025   
O471     O      0.827460000000     0.168180000000     0.993920000000    -0.257157   
O472     O      0.638120000000     0.259790000000     0.914420000000    -0.173413   
O473     O      0.594210000000     0.287060000000     0.951440000000    -0.158005   
O474     O      0.584860000000     0.227990000000     0.929780000000    -0.268995   
O475     O      0.830390000000     0.372240000000     0.935860000000    -0.167197   
O476     O      0.845450000000     0.409960000000     0.984700000000    -0.148393   
O477     O      0.800210000000     0.427340000000     0.941810000000    -0.255774   
O478     O      0.668940000000     0.089960000000     0.471560000000    -0.17899    
O479     O      0.680600000000     0.079750000000     0.534780000000    -0.163234   
O480     O      0.709580000000     0.044600000000     0.989980000000    -0.200559   
O481     O      0.655140000000     0.000670000000     0.887360000000    -0.178582   
O482     O      0.686380000000     0.971680000000     0.839910000000    -0.156835   
O483     O      0.676170000000     0.034150000000     0.836490000000    -0.272159   
O484     O      0.804440000000     0.081060000000     0.623340000000    -0.180811   
O485     O      0.761640000000     0.062490000000     0.579860000000    -0.168037   
O486     O      0.823580000000     0.045060000000     0.573990000000    -0.264613   
O487     O      0.902970000000     0.226160000000     0.865910000000    -0.165289   
O488     O      0.949510000000     0.191590000000     0.838370000000    -0.1696     
O489     O      0.937930000000     0.250120000000     0.817180000000    -0.198789   
O490     O      0.585700000000     0.305730000000     0.640700000000    -0.179931   
O491     O      0.584700000000     0.259730000000     0.684270000000    -0.168262   
O492     O      0.548900000000     0.311850000000     0.693130000000    -0.272168   
O493     O      0.621860000000     0.438810000000     0.833810000000    -0.158081   
O494     O      0.572070000000     0.443330000000     0.794370000000    -0.170701   
O495     O      0.573090000000     0.476130000000     0.850350000000    -0.263956   
O496     O      0.881110000000     0.418050000000     0.805700000000    -0.165864   
O497     O      0.918600000000     0.462600000000     0.830300000000    -0.143479   
O498     O      0.935900000000     0.432610000000     0.775410000000    -0.261742   
O499     O      0.012090000000     0.395920000000     0.861830000000    -0.167418   
O500     O      0.953900000000     0.407260000000     0.837690000000    -0.144106   
O501     O      0.503170000000     0.446120000000     0.824330000000    -0.198452   
O502     O      0.916100000000     0.122090000000     0.715610000000    -0.179332   
O503     O      0.926590000000     0.079250000000     0.761070000000    -0.171039   
O504     O      0.950950000000     0.071190000000     0.701270000000    -0.264608   
O505     O      0.493870000000     0.553280000000     0.295070000000    -0.378778   
O506     O      0.499440000000     0.958610000000     0.297000000000    -0.298006   
O507     O      0.543180000000     0.008610000000     0.302370000000    -0.381179   
O508     O      0.948370000000     0.501820000000     0.288710000000    -0.368017   
O509     O      0.955470000000     0.502760000000     0.235940000000    -0.38092    
O510     O      0.549960000000     0.012580000000     0.249680000000    -0.39545    
O511     O      0.007940000000     0.960000000000     0.244210000000    -0.380397   
O512     O      0.998150000000     0.553490000000     0.241960000000    -0.383278   
O513     O      0.971000000000     0.711260000000     0.256510000000    -0.392313   
O514     O      0.967740000000     0.804610000000     0.256120000000    -0.393664   
O515     O      0.975360000000     0.756340000000     0.207740000000    -0.387569   
O516     O      0.964330000000     0.757280000000     0.304470000000    -0.317401   
O517     O      0.515960000000     0.768100000000     0.308900000000    -0.386624   
O518     O      0.527550000000     0.753810000000     0.214210000000    -0.373979   
O519     O      0.520470000000     0.806760000000     0.254350000000    -0.379888   
O520     O      0.522080000000     0.712920000000     0.269470000000    -0.383241   
O521     O      0.797510000000     0.988610000000     0.274110000000    -0.396085   
O522     O      0.702570000000     0.985610000000     0.267490000000    -0.389121   
O523     O      0.752670000000     0.980730000000     0.221920000000    -0.389508   
O524     O      0.746200000000     0.993690000000     0.317970000000    -0.381962   
O525     O      0.747960000000     0.545010000000     0.310450000000    -0.387112   
O526     O      0.752290000000     0.532070000000     0.215100000000    -0.399219   
O527     O      0.701280000000     0.536790000000     0.259730000000    -0.387266   
O528     O      0.797240000000     0.539470000000     0.263920000000    -0.393723   
O529     O      0.734500000000     0.534950000000     0.003930000000    -0.313861   
O530     O      0.743960000000     0.941730000000     0.014480000000    -0.39413    
O531     O      0.739800000000     0.991560000000     0.058260000000    -0.380984   
O532     O      0.739180000000     0.483900000000     0.461820000000    -0.396752   
O533     O      0.790670000000     0.494680000000     0.460570000000    -0.383387   
O534     O      0.792610000000     0.992460000000     0.057370000000    -0.380821   
O535     O      0.796020000000     0.946080000000     0.507450000000    -0.371241   
O536     O      0.786780000000     0.539580000000     0.510790000000    -0.37486    
O537     O      0.567520000000     0.755960000000     0.001960000000    -0.377696   
O538     O      0.972150000000     0.767950000000     0.010520000000    -0.386773   
O539     O      0.024420000000     0.759090000000     0.054380000000    -0.394311   
O540     O      0.517310000000     0.764770000000     0.458200000000    -0.384807   
O541     O      0.512140000000     0.713250000000     0.455320000000    -0.383844   
O542     O      0.010430000000     0.709180000000     0.052360000000    -0.391674   
O543     O      0.965140000000     0.717300000000     0.501910000000    -0.393819   
O544     O      0.560250000000     0.704760000000     0.505280000000    -0.383964   
O545     O      0.764360000000     0.694090000000     0.047450000000    -0.389404   
O546     O      0.765680000000     0.788030000000     0.047630000000    -0.392308   
O547     O      0.716370000000     0.741330000000     0.047480000000    -0.385843   
O548     O      0.812890000000     0.740610000000     0.047210000000    -0.386756   
O549     O      0.811680000000     0.732440000000     0.494760000000    -0.369943   
O550     O      0.717300000000     0.749780000000     0.494980000000    -0.391049   
O551     O      0.773980000000     0.787150000000     0.495070000000    -0.391145   
O552     O      0.754750000000     0.694940000000     0.495020000000    -0.382423   
O553     O      0.880810000000     0.659700000000     0.459230000000    -0.170385   
O554     O      0.841340000000     0.706180000000     0.443660000000    -0.149524   
O555     O      0.827460000000     0.668180000000     0.493920000000    -0.262555   
O556     O      0.638120000000     0.759790000000     0.414420000000    -0.173503   
O557     O      0.594210000000     0.787060000000     0.451440000000    -0.159963   
O558     O      0.584860000000     0.727990000000     0.429780000000    -0.269814   
O559     O      0.830390000000     0.872240000000     0.435860000000    -0.167654   
O560     O      0.845450000000     0.909960000000     0.484700000000    -0.151071   
O561     O      0.800210000000     0.927340000000     0.441810000000    -0.256512   
O562     O      0.668940000000     0.589960000000     0.971560000000    -0.177632   
O563     O      0.680600000000     0.579750000000     0.034780000000    -0.166604   
O564     O      0.709580000000     0.544600000000     0.489980000000    -0.205104   
O565     O      0.655140000000     0.500670000000     0.387360000000    -0.178178   
O566     O      0.686380000000     0.471680000000     0.339910000000    -0.158761   
O567     O      0.676170000000     0.534150000000     0.336490000000    -0.27215    
O568     O      0.804440000000     0.581060000000     0.123340000000    -0.180861   
O569     O      0.761640000000     0.562490000000     0.079860000000    -0.16752    
O570     O      0.823580000000     0.545060000000     0.073990000000    -0.264317   
O571     O      0.902970000000     0.726160000000     0.365910000000    -0.165522   
O572     O      0.949510000000     0.691590000000     0.338370000000    -0.169703   
O573     O      0.937930000000     0.750120000000     0.317180000000    -0.198781   
O574     O      0.585700000000     0.805730000000     0.140700000000    -0.180058   
O575     O      0.584700000000     0.759740000000     0.184270000000    -0.168299   
O576     O      0.548900000000     0.811850000000     0.193120000000    -0.272154   
O577     O      0.621860000000     0.938810000000     0.333810000000    -0.158002   
O578     O      0.572070000000     0.943330000000     0.294370000000    -0.170273   
O579     O      0.573090000000     0.976130000000     0.350350000000    -0.263402   
O580     O      0.881110000000     0.918050000000     0.305700000000    -0.165981   
O581     O      0.918600000000     0.962600000000     0.330300000000    -0.142808   
O582     O      0.935900000000     0.932610000000     0.275420000000    -0.261349   
O583     O      0.012090000000     0.895920000000     0.361830000000    -0.167839   
O584     O      0.953900000000     0.907260000000     0.337680000000    -0.144257   
O585     O      0.503170000000     0.946120000000     0.324330000000    -0.198687   
O586     O      0.916100000000     0.622090000000     0.215610000000    -0.17933    
O587     O      0.926590000000     0.579240000000     0.261070000000    -0.171009   
O588     O      0.950950000000     0.571190000000     0.201270000000    -0.264507   
O589     O      0.493870000000     0.553280000000     0.795070000000    -0.378657   
O590     O      0.499440000000     0.958610000000     0.797000000000    -0.298012   
O591     O      0.543180000000     0.008610000000     0.802370000000    -0.381025   
O592     O      0.948370000000     0.501820000000     0.788710000000    -0.367965   
O593     O      0.955470000000     0.502760000000     0.735940000000    -0.380876   
O594     O      0.549960000000     0.012580000000     0.749680000000    -0.395521   
O595     O      0.007940000000     0.960000000000     0.744210000000    -0.380354   
O596     O      0.998150000000     0.553490000000     0.741960000000    -0.383257   
O597     O      0.971000000000     0.711260000000     0.756510000000    -0.392322   
O598     O      0.967740000000     0.804610000000     0.756120000000    -0.393653   
O599     O      0.975360000000     0.756340000000     0.707740000000    -0.387577   
O600     O      0.964330000000     0.757280000000     0.804470000000    -0.31739    
O601     O      0.515960000000     0.768100000000     0.808900000000    -0.386616   
O602     O      0.527550000000     0.753810000000     0.714210000000    -0.373987   
O603     O      0.520470000000     0.806760000000     0.754350000000    -0.379881   
O604     O      0.522080000000     0.712920000000     0.769470000000    -0.383244   
O605     O      0.797510000000     0.988610000000     0.774110000000    -0.396078   
O606     O      0.702570000000     0.985610000000     0.767490000000    -0.389112   
O607     O      0.752670000000     0.980730000000     0.721920000000    -0.389501   
O608     O      0.746200000000     0.993690000000     0.817970000000    -0.38195    
O609     O      0.747960000000     0.545010000000     0.810450000000    -0.387098   
O610     O      0.752290000000     0.532070000000     0.715100000000    -0.399225   
O611     O      0.701280000000     0.536790000000     0.759730000000    -0.387268   
O612     O      0.797240000000     0.539470000000     0.763920000000    -0.393726   
O613     O      0.734500000000     0.534950000000     0.503940000000    -0.309926   
O614     O      0.743960000000     0.941730000000     0.514480000000    -0.393591   
O615     O      0.739800000000     0.991560000000     0.558260000000    -0.381577   
O616     O      0.739180000000     0.483900000000     0.961820000000    -0.392854   
O617     O      0.790670000000     0.494680000000     0.960570000000    -0.379432   
O618     O      0.792610000000     0.992460000000     0.557370000000    -0.381476   
O619     O      0.796020000000     0.946080000000     0.007450000000    -0.372803   
O620     O      0.786780000000     0.539580000000     0.010790000000    -0.375512   
O621     O      0.567520000000     0.755960000000     0.501960000000    -0.37641    
O622     O      0.972150000000     0.767950000000     0.510520000000    -0.38617    
O623     O      0.024420000000     0.759090000000     0.554380000000    -0.39499    
O624     O      0.517310000000     0.764770000000     0.958200000000    -0.380762   
O625     O      0.512140000000     0.713250000000     0.955320000000    -0.379812   
O626     O      0.010430000000     0.709180000000     0.552360000000    -0.392272   
O627     O      0.965140000000     0.717300000000     0.001910000000    -0.395189   
O628     O      0.560250000000     0.704760000000     0.005280000000    -0.384702   
O629     O      0.764360000000     0.694090000000     0.547450000000    -0.391228   
O630     O      0.765680000000     0.788030000000     0.547630000000    -0.393857   
O631     O      0.716370000000     0.741330000000     0.547480000000    -0.387381   
O632     O      0.812890000000     0.740610000000     0.547210000000    -0.388486   
O633     O      0.811680000000     0.732440000000     0.994760000000    -0.364602   
O634     O      0.717300000000     0.749780000000     0.994980000000    -0.386002   
O635     O      0.773980000000     0.787150000000     0.995070000000    -0.385967   
O636     O      0.754750000000     0.694940000000     0.995020000000    -0.377112   
O637     O      0.880810000000     0.659700000000     0.959230000000    -0.169371   
O638     O      0.841340000000     0.706180000000     0.943660000000    -0.15003    
O639     O      0.827460000000     0.668180000000     0.993920000000    -0.257134   
O640     O      0.638120000000     0.759790000000     0.914420000000    -0.173415   
O641     O      0.594210000000     0.787060000000     0.951440000000    -0.157942   
O642     O      0.584860000000     0.727990000000     0.929780000000    -0.268991   
O643     O      0.830390000000     0.872240000000     0.935860000000    -0.167116   
O644     O      0.845450000000     0.909960000000     0.984700000000    -0.148088   
O645     O      0.800210000000     0.927340000000     0.941810000000    -0.25556    
O646     O      0.668940000000     0.589960000000     0.471560000000    -0.17879    
O647     O      0.680600000000     0.579750000000     0.534780000000    -0.162849   
O648     O      0.709580000000     0.544600000000     0.989980000000    -0.200699   
O649     O      0.655140000000     0.500670000000     0.887360000000    -0.17757    
O650     O      0.686380000000     0.471680000000     0.839910000000    -0.158669   
O651     O      0.676170000000     0.534150000000     0.836490000000    -0.272166   
O652     O      0.804440000000     0.581060000000     0.623340000000    -0.180788   
O653     O      0.761640000000     0.562490000000     0.579860000000    -0.167517   
O654     O      0.823580000000     0.545060000000     0.573990000000    -0.26399    
O655     O      0.902970000000     0.726160000000     0.865910000000    -0.165291   
O656     O      0.949510000000     0.691590000000     0.838370000000    -0.16958    
O657     O      0.937930000000     0.750120000000     0.817180000000    -0.198807   
O658     O      0.585700000000     0.805730000000     0.640700000000    -0.179838   
O659     O      0.584700000000     0.759740000000     0.684270000000    -0.168303   
O660     O      0.548900000000     0.811850000000     0.693130000000    -0.272142   
O661     O      0.621860000000     0.938810000000     0.833810000000    -0.157762   
O662     O      0.572070000000     0.943330000000     0.794370000000    -0.170247   
O663     O      0.573090000000     0.976130000000     0.850350000000    -0.263169   
O664     O      0.881110000000     0.918050000000     0.805700000000    -0.165886   
O665     O      0.918600000000     0.962600000000     0.830300000000    -0.142513   
O666     O      0.935900000000     0.932610000000     0.775410000000    -0.261458   
O667     O      0.012090000000     0.895920000000     0.861830000000    -0.167244   
O668     O      0.953900000000     0.907260000000     0.837690000000    -0.143969   
O669     O      0.503170000000     0.946120000000     0.824330000000    -0.19866    
O670     O      0.916100000000     0.622090000000     0.715610000000    -0.179304   
O671     O      0.926590000000     0.579240000000     0.761070000000    -0.170971   
O672     O      0.950950000000     0.571190000000     0.701270000000    -0.264454   
S1       S      0.356470000000     0.186250000000     0.473860000000     0.288299   
S2       S      0.111740000000     0.253680000000     0.442980000000     0.281206   
S3       S      0.316010000000     0.397430000000     0.461990000000     0.286772   
S4       S      0.195680000000     0.079210000000     0.998260000000     0.283744   
S5       S      0.184040000000     0.004150000000     0.360900000000     0.276199   
S6       S      0.293840000000     0.052100000000     0.099620000000     0.277623   
S7       S      0.438220000000     0.227010000000     0.348670000000     0.27761    
S8       S      0.063020000000     0.286560000000     0.166230000000     0.287582   
S9       S      0.094690000000     0.462800000000     0.319580000000     0.291061   
S10      S      0.405560000000     0.446780000000     0.296720000000     0.291816   
S11      S      0.492340000000     0.410050000000     0.330910000000     0.292574   
S12      S      0.442330000000     0.097140000000     0.229960000000     0.279726   
S13      S      0.356470000000     0.186250000000     0.973860000000     0.293945   
S14      S      0.111740000000     0.253680000000     0.942980000000     0.282069   
S15      S      0.316010000000     0.397430000000     0.961990000000     0.287938   
S16      S      0.195680000000     0.079210000000     0.498260000000     0.279987   
S17      S      0.184040000000     0.004150000000     0.860900000000     0.276217   
S18      S      0.293840000000     0.052100000000     0.599620000000     0.277606   
S19      S      0.438220000000     0.227010000000     0.848670000000     0.277687   
S20      S      0.063020000000     0.286560000000     0.666230000000     0.287531   
S21      S      0.094690000000     0.462800000000     0.819580000000     0.291087   
S22      S      0.405560000000     0.446780000000     0.796720000000     0.29177    
S23      S      0.492340000000     0.410050000000     0.830910000000     0.292653   
S24      S      0.442330000000     0.097140000000     0.729960000000     0.279733   
S25      S      0.356470000000     0.686250000000     0.473860000000     0.288308   
S26      S      0.111740000000     0.753680000000     0.442980000000     0.281192   
S27      S      0.316010000000     0.897430000000     0.461990000000     0.286765   
S28      S      0.195680000000     0.579200000000     0.998260000000     0.284073   
S29      S      0.184040000000     0.504140000000     0.360900000000     0.278419   
S30      S      0.293840000000     0.552100000000     0.099620000000     0.277682   
S31      S      0.438220000000     0.727010000000     0.348670000000     0.27762    
S32      S      0.063020000000     0.786560000000     0.166230000000     0.287643   
S33      S      0.094690000000     0.962800000000     0.319580000000     0.290874   
S34      S      0.405560000000     0.946780000000     0.296720000000     0.292585   
S35      S      0.492340000000     0.910050000000     0.330910000000     0.292795   
S36      S      0.442330000000     0.597140000000     0.229960000000     0.279689   
S37      S      0.356470000000     0.686250000000     0.973860000000     0.293967   
S38      S      0.111740000000     0.753680000000     0.942980000000     0.282057   
S39      S      0.316010000000     0.897430000000     0.961990000000     0.287932   
S40      S      0.195680000000     0.579200000000     0.498260000000     0.280302   
S41      S      0.184040000000     0.504140000000     0.860900000000     0.278447   
S42      S      0.293840000000     0.552100000000     0.599620000000     0.277666   
S43      S      0.438220000000     0.727010000000     0.848670000000     0.277697   
S44      S      0.063020000000     0.786560000000     0.666230000000     0.287592   
S45      S      0.094690000000     0.962800000000     0.819580000000     0.290899   
S46      S      0.405560000000     0.946780000000     0.796720000000     0.292542   
S47      S      0.492340000000     0.910050000000     0.830910000000     0.292875   
S48      S      0.442330000000     0.597140000000     0.729960000000     0.279696   
S49      S      0.856470000000     0.186250000000     0.473860000000     0.288314   
S50      S      0.611740000000     0.253680000000     0.442980000000     0.281197   
S51      S      0.816010000000     0.397430000000     0.461990000000     0.286771   
S52      S      0.695680000000     0.079210000000     0.998260000000     0.283743   
S53      S      0.684040000000     0.004150000000     0.360900000000     0.276196   
S54      S      0.793840000000     0.052100000000     0.099620000000     0.277659   
S55      S      0.938210000000     0.227010000000     0.348670000000     0.277856   
S56      S      0.563020000000     0.286560000000     0.166230000000     0.287577   
S57      S      0.594690000000     0.462800000000     0.319580000000     0.291068   
S58      S      0.905560000000     0.446780000000     0.296720000000     0.291921   
S59      S      0.992340000000     0.410050000000     0.330910000000     0.295542   
S60      S      0.942330000000     0.097140000000     0.229960000000     0.279751   
S61      S      0.856470000000     0.186250000000     0.973860000000     0.293939   
S62      S      0.611740000000     0.253680000000     0.942980000000     0.28206    
S63      S      0.816010000000     0.397430000000     0.961990000000     0.287933   
S64      S      0.695680000000     0.079210000000     0.498260000000     0.27999    
S65      S      0.684040000000     0.004150000000     0.860900000000     0.276214   
S66      S      0.793840000000     0.052100000000     0.599620000000     0.277642   
S67      S      0.938210000000     0.227010000000     0.848670000000     0.27793    
S68      S      0.563020000000     0.286560000000     0.666230000000     0.287527   
S69      S      0.594690000000     0.462800000000     0.819580000000     0.291093   
S70      S      0.905560000000     0.446780000000     0.796720000000     0.291875   
S71      S      0.992340000000     0.410050000000     0.830910000000     0.295581   
S72      S      0.942330000000     0.097140000000     0.729960000000     0.279758   
S73      S      0.856470000000     0.686250000000     0.473860000000     0.288322   
S74      S      0.611740000000     0.753680000000     0.442980000000     0.281184   
S75      S      0.816010000000     0.897430000000     0.461990000000     0.286764   
S76      S      0.695680000000     0.579200000000     0.998260000000     0.284073   
S77      S      0.684040000000     0.504140000000     0.360900000000     0.278417   
S78      S      0.793840000000     0.552100000000     0.099620000000     0.277718   
S79      S      0.938210000000     0.727010000000     0.348670000000     0.277866   
S80      S      0.563020000000     0.786560000000     0.166230000000     0.287638   
S81      S      0.594690000000     0.962800000000     0.319580000000     0.290881   
S82      S      0.905560000000     0.946780000000     0.296720000000     0.292687   
S83      S      0.992340000000     0.910050000000     0.330910000000     0.295748   
S84      S      0.942330000000     0.597140000000     0.229960000000     0.279713   
S85      S      0.856470000000     0.686250000000     0.973860000000     0.29396    
S86      S      0.611740000000     0.753680000000     0.942980000000     0.282048   
S87      S      0.816010000000     0.897430000000     0.961990000000     0.287927   
S88      S      0.695680000000     0.579200000000     0.498260000000     0.280305   
S89      S      0.684040000000     0.504140000000     0.860900000000     0.278445   
S90      S      0.793840000000     0.552100000000     0.599620000000     0.277702   
S91      S      0.938210000000     0.727010000000     0.848670000000     0.27794    
S92      S      0.563020000000     0.786560000000     0.666230000000     0.287588   
S93      S      0.594690000000     0.962800000000     0.819580000000     0.290906   
S94      S      0.905560000000     0.946780000000     0.796720000000     0.292645   
S95      S      0.992340000000     0.910050000000     0.830910000000     0.295788   
S96      S      0.942330000000     0.597140000000     0.729960000000     0.27972    


