data_structure

_audit_creation_method RASPA-1.0
_audit_creation_date 2023-6-4
_audit_author_name 'Poobodin Mano'

_cell_length_a    28.2366
_cell_length_b    29.4173
_cell_length_c    20.9817
_cell_angle_alpha 89.9989
_cell_angle_beta  89.9989
_cell_angle_gamma 96.7621
_cell_volume      17307.1

_symmetry_cell_setting          triclinic
_symmetry_space_group_name_Hall 'P 1'
_symmetry_space_group_name_H-M  'P 1'
_symmetry_Int_Tables_number     1

_symmetry_equiv_pos_as_xyz 'x,y,z'

loop_
_atom_site_label
_atom_site_type_symbol
_atom_site_fract_x
_atom_site_fract_y
_atom_site_fract_z
_atom_site_charge
C1       C      0.097900000000     0.405530000000     0.020270000000     0.397024   
C2       C      0.478120000000     0.032320000000     0.024110000000     0.412651   
C3       C      0.066030000000     0.049500000000     0.023230000000     0.399773   
C4       C      0.416430000000     0.422460000000     0.029450000000     0.403426   
C5       C      0.082040000000     0.445860000000     0.505740000000     0.403574   
C6       C      0.429310000000     0.039570000000     0.502790000000     0.390932   
C7       C      0.049850000000     0.084810000000     0.499550000000     0.420631   
C8       C      0.447040000000     0.423150000000     0.508230000000     0.4191     
C9       C      0.276970000000     0.210940000000     0.889530000000     0.480763   
C10      C      0.286860000000     0.221630000000     0.131120000000     0.464802   
C11      C      0.343640000000     0.157550000000     0.015270000000     0.462571   
C12      C      0.225800000000     0.273930000000     0.011050000000     0.481547   
C13      C      0.260910000000     0.244700000000     0.388680000000     0.469664   
C14      C      0.258690000000     0.240470000000     0.631290000000     0.467852   
C15      C      0.308740000000     0.177380000000     0.511550000000     0.457429   
C16      C      0.206440000000     0.310610000000     0.512660000000     0.45039    
C17      C      0.301100000000     0.259880000000     0.733060000000    -0.0107597  
C18      C      0.217500000000     0.220350000000     0.733800000000    -0.0612227  
C19      C      0.314950000000     0.226890000000     0.784220000000    -0.00679851 
C20      C      0.230650000000     0.189220000000     0.788650000000     0.167095   
C21      C      0.264180000000     0.187510000000     0.236510000000    -0.0126319  
C22      C      0.315640000000     0.262800000000     0.230030000000    -0.0618775  
C23      C      0.233660000000     0.206990000000     0.287570000000    -0.00836361 
C24      C      0.285740000000     0.281920000000     0.283080000000     0.164999   
C25      C      0.132460000000     0.339560000000     0.476940000000    -0.0102095  
C26      C      0.182470000000     0.380340000000     0.563860000000    -0.0612902  
C27      C      0.121140000000     0.385900000000     0.451890000000    -0.0108506  
C28      C      0.160300000000     0.425190000000     0.547500000000     0.160545   
C29      C      0.374520000000     0.323310000000     0.573680000000    -0.0279258  
C30      C      0.387380000000     0.307840000000     0.462120000000    -0.081933   
C31      C      0.422640000000     0.353560000000     0.571180000000     0.00397762 
C32      C      0.419920000000     0.352320000000     0.450030000000     0.179115   
C33      C      0.389770000000     0.099330000000     0.447810000000    -0.0161024  
C34      C      0.353980000000     0.063000000000     0.547660000000    -0.0645951  
C35      C      0.380490000000     0.146500000000     0.472390000000    -0.00495583 
C36      C      0.335230000000     0.109130000000     0.565540000000     0.163231   
C37      C      0.133910000000     0.174730000000     0.561950000000    -0.0339539  
C38      C      0.132110000000     0.185590000000     0.447060000000    -0.0861724  
C39      C      0.081050000000     0.156280000000     0.554660000000     0.00747114 
C40      C      0.091630000000     0.147110000000     0.435780000000     0.179106   
C41      C      0.134060000000     0.342670000000     0.072200000000    -0.0179006  
C42      C      0.157300000000     0.368700000000     0.959750000000    -0.0650692  
C43      C      0.150020000000     0.297290000000     0.049280000000    -0.00370394 
C44      C      0.203920000000     0.348630000000     0.974730000000     0.171238   
C45      C      0.377310000000     0.353220000000     0.081610000000    -0.0111816  
C46      C      0.353290000000     0.373490000000     0.973110000000    -0.0629255  
C47      C      0.398490000000     0.311450000000     0.054940000000    -0.0210995  
C48      C      0.373140000000     0.331220000000     0.946070000000     0.161822   
C49      C      0.420090000000     0.136380000000     0.055330000000    -0.0127224  
C50      C      0.364600000000     0.081000000000     0.988690000000    -0.0587442  
C51      C      0.438980000000     0.092200000000     0.078000000000    -0.00894792 
C52      C      0.410900000000     0.061930000000     0.968880000000     0.165426   
C53      C      0.126200000000     0.100450000000     0.080920000000    -0.00277262 
C54      C      0.141870000000     0.071900000000     0.969600000000    -0.0559991  
C55      C      0.159960000000     0.143060000000     0.064960000000    -0.0288094  
C56      C      0.179140000000     0.113890000000     0.961440000000     0.151031   
C57      C      0.050770000000     0.923770000000     0.025850000000     0.395288   
C58      C      0.430450000000     0.550130000000     0.023860000000     0.413459   
C59      C      0.112820000000     0.533410000000     0.030360000000     0.401629   
C60      C      0.463330000000     0.906730000000     0.016810000000     0.403101   
C61      C      0.073800000000     0.957690000000     0.501750000000     0.404961   
C62      C      0.420720000000     0.550970000000     0.504970000000     0.389323   
C63      C      0.056190000000     0.573320000000     0.511460000000     0.420789   
C64      C      0.452970000000     0.911970000000     0.498390000000     0.41897    
C65      C      0.245650000000     0.744990000000     0.890760000000     0.48866    
C66      C      0.246820000000     0.737500000000     0.130990000000     0.47202    
C67      C      0.302770000000     0.681670000000     0.011330000000     0.464925   
C68      C      0.185810000000     0.798690000000     0.017870000000     0.480625   
C69      C      0.239230000000     0.752050000000     0.390040000000     0.476748   
C70      C      0.244010000000     0.760570000000     0.630450000000     0.473382   
C71      C      0.296390000000     0.686240000000     0.514020000000     0.46154    
C72      C      0.194450000000     0.819680000000     0.509700000000     0.445886   
C73      C      0.282830000000     0.787510000000     0.731970000000    -0.0117185  
C74      C      0.196420000000     0.757490000000     0.729570000000    -0.0619147  
C75      C      0.290020000000     0.757350000000     0.789700000000    -0.00566534 
C76      C      0.202440000000     0.727200000000     0.787660000000     0.168905   
C77      C      0.226270000000     0.698560000000     0.234270000000    -0.0122718  
C78      C      0.282010000000     0.771660000000     0.230320000000    -0.0632264  
C79      C      0.201380000000     0.717130000000     0.292190000000    -0.00815977 
C80      C      0.254210000000     0.791320000000     0.284010000000     0.16817    
C81      C      0.119420000000     0.848470000000     0.477740000000    -0.00980122 
C82      C      0.174030000000     0.891800000000     0.557660000000    -0.0615431  
C83      C      0.108190000000     0.894050000000     0.449830000000    -0.0109452  
C84      C      0.153260000000     0.936770000000     0.538570000000     0.161204   
C85      C      0.369940000000     0.821410000000     0.559920000000    -0.0342091  
C86      C      0.371020000000     0.811170000000     0.444880000000    -0.089166   
C87      C      0.422770000000     0.839660000000     0.552080000000     0.00673949 
C88      C      0.411390000000     0.849890000000     0.433650000000     0.180867   
C89      C      0.376210000000     0.606840000000     0.449290000000    -0.0165151  
C90      C      0.346580000000     0.573900000000     0.554090000000    -0.0644086  
C91      C      0.366510000000     0.654460000000     0.471300000000    -0.00484945 
C92      C      0.325080000000     0.619360000000     0.569110000000     0.162575   
C93      C      0.129870000000     0.673070000000     0.577760000000    -0.0271355  
C94      C      0.115080000000     0.689270000000     0.467070000000    -0.0792812  
C95      C      0.082520000000     0.641480000000     0.576320000000     0.00465808 
C96      C      0.082710000000     0.644790000000     0.454910000000     0.177223   
C97      C      0.091860000000     0.865410000000     0.080880000000    -0.0176883  
C98      C      0.112890000000     0.889540000000     0.967070000000    -0.0650732  
C99      C      0.110760000000     0.820740000000     0.060450000000    -0.00417781 
C100     C      0.161180000000     0.872980000000     0.983250000000     0.171717   
C101     C      0.403060000000     0.855630000000     0.073240000000    -0.00147999 
C102     C      0.390130000000     0.880470000000     0.958690000000    -0.0578234  
C103     C      0.369980000000     0.812750000000     0.057910000000    -0.0300511  
C104     C      0.351750000000     0.838890000000     0.952650000000     0.153427   
C105     C      0.378500000000     0.658030000000     0.050210000000    -0.0121756  
C106     C      0.320710000000     0.604260000000     0.984400000000    -0.0579282  
C107     C      0.394360000000     0.613070000000     0.075040000000    -0.00943581 
C108     C      0.365580000000     0.582130000000     0.966530000000     0.16474    
C109     C      0.153540000000     0.600730000000     0.085820000000    -0.0119687  
C110     C      0.175470000000     0.583410000000     0.975430000000    -0.0628752  
C111     C      0.132320000000     0.643520000000     0.062620000000    -0.0190664  
C112     C      0.154420000000     0.625810000000     0.951370000000     0.162722   
C113     C      0.550770000000     0.423770000000     0.025850000000     0.395325   
C114     C      0.930450000000     0.050130000000     0.023860000000     0.413414   
C115     C      0.612820000000     0.033410000000     0.030360000000     0.401599   
C116     C      0.963330000000     0.406720000000     0.016810000000     0.403053   
C117     C      0.573800000000     0.457680000000     0.501750000000     0.404885   
C118     C      0.920720000000     0.050960000000     0.504970000000     0.389458   
C119     C      0.556180000000     0.073320000000     0.511460000000     0.420693   
C120     C      0.952980000000     0.411970000000     0.498390000000     0.419083   
C121     C      0.745650000000     0.244990000000     0.890760000000     0.488655   
C122     C      0.746820000000     0.237500000000     0.130990000000     0.472024   
C123     C      0.802770000000     0.181670000000     0.011330000000     0.465079   
C124     C      0.685810000000     0.298690000000     0.017870000000     0.480621   
C125     C      0.739230000000     0.252050000000     0.390040000000     0.476828   
C126     C      0.744010000000     0.260570000000     0.630450000000     0.473387   
C127     C      0.796380000000     0.186240000000     0.514020000000     0.461686   
C128     C      0.694450000000     0.319680000000     0.509700000000     0.446035   
C129     C      0.782830000000     0.287510000000     0.731960000000    -0.0116771  
C130     C      0.696420000000     0.257490000000     0.729570000000    -0.0619057  
C131     C      0.790020000000     0.257350000000     0.789700000000    -0.00568094 
C132     C      0.702440000000     0.227200000000     0.787660000000     0.168883   
C133     C      0.726270000000     0.198560000000     0.234270000000    -0.0122324  
C134     C      0.782010000000     0.271660000000     0.230320000000    -0.063252   
C135     C      0.701380000000     0.217130000000     0.292190000000    -0.00816887 
C136     C      0.754210000000     0.291320000000     0.284010000000     0.168183   
C137     C      0.619420000000     0.348470000000     0.477740000000    -0.0097719  
C138     C      0.674030000000     0.391800000000     0.557660000000    -0.0615226  
C139     C      0.608190000000     0.394040000000     0.449830000000    -0.0109868  
C140     C      0.653260000000     0.436770000000     0.538570000000     0.161151   
C141     C      0.869930000000     0.321410000000     0.559920000000    -0.0342293  
C142     C      0.871020000000     0.311170000000     0.444880000000    -0.0890712  
C143     C      0.922770000000     0.339670000000     0.552080000000     0.00677881 
C144     C      0.911380000000     0.349900000000     0.433650000000     0.180764   
C145     C      0.876210000000     0.106840000000     0.449290000000    -0.0165314  
C146     C      0.846580000000     0.073900000000     0.554090000000    -0.0644471  
C147     C      0.866500000000     0.154460000000     0.471300000000    -0.00478996 
C148     C      0.825070000000     0.119360000000     0.569110000000     0.162649   
C149     C      0.629870000000     0.173060000000     0.577760000000    -0.0271039  
C150     C      0.615080000000     0.189270000000     0.467070000000    -0.0792932  
C151     C      0.582520000000     0.141480000000     0.576320000000     0.00464279 
C152     C      0.582710000000     0.144790000000     0.454910000000     0.177227   
C153     C      0.591870000000     0.365410000000     0.080880000000    -0.0176901  
C154     C      0.612890000000     0.389540000000     0.967070000000    -0.0650999  
C155     C      0.610760000000     0.320740000000     0.060450000000    -0.00417342 
C156     C      0.661180000000     0.372980000000     0.983250000000     0.171731   
C157     C      0.903070000000     0.355630000000     0.073240000000    -0.00146028 
C158     C      0.890120000000     0.380470000000     0.958690000000    -0.0578347  
C159     C      0.869980000000     0.312750000000     0.057910000000    -0.0301014  
C160     C      0.851750000000     0.338890000000     0.952650000000     0.153355   
C161     C      0.878500000000     0.158030000000     0.050210000000    -0.0121674  
C162     C      0.820710000000     0.104260000000     0.984400000000    -0.0579204  
C163     C      0.894360000000     0.113070000000     0.075040000000    -0.00944358 
C164     C      0.865580000000     0.082130000000     0.966530000000     0.164735   
C165     C      0.653540000000     0.100740000000     0.085820000000    -0.0120017  
C166     C      0.675460000000     0.083410000000     0.975430000000    -0.0628285  
C167     C      0.632320000000     0.143520000000     0.062620000000    -0.0190527  
C168     C      0.654420000000     0.125810000000     0.951370000000     0.162693   
C169     C      0.597900000000     0.905520000000     0.020270000000     0.396924   
C170     C      0.978120000000     0.532320000000     0.024110000000     0.412686   
C171     C      0.566030000000     0.549500000000     0.023230000000     0.399819   
C172     C      0.916430000000     0.922460000000     0.029450000000     0.403447   
C173     C      0.582030000000     0.945860000000     0.505740000000     0.403589   
C174     C      0.929300000000     0.539570000000     0.502790000000     0.390916   
C175     C      0.549850000000     0.584810000000     0.499550000000     0.420596   
C176     C      0.947040000000     0.923150000000     0.508230000000     0.419147   
C177     C      0.776970000000     0.710940000000     0.889530000000     0.480788   
C178     C      0.786860000000     0.721630000000     0.131120000000     0.464811   
C179     C      0.843640000000     0.657550000000     0.015270000000     0.462631   
C180     C      0.725790000000     0.773930000000     0.011050000000     0.481596   
C181     C      0.760910000000     0.744700000000     0.388680000000     0.469665   
C182     C      0.758690000000     0.740470000000     0.631290000000     0.467854   
C183     C      0.808730000000     0.677380000000     0.511550000000     0.457546   
C184     C      0.706440000000     0.810610000000     0.512660000000     0.450392   
C185     C      0.801100000000     0.759880000000     0.733060000000    -0.0107508  
C186     C      0.717500000000     0.720340000000     0.733800000000    -0.0613103  
C187     C      0.814950000000     0.726890000000     0.784220000000    -0.00677437 
C188     C      0.730650000000     0.689220000000     0.788650000000     0.16718    
C189     C      0.764170000000     0.687510000000     0.236510000000    -0.0126252  
C190     C      0.815640000000     0.762800000000     0.230030000000    -0.0618973  
C191     C      0.733660000000     0.706990000000     0.287570000000    -0.0083589  
C192     C      0.785740000000     0.781920000000     0.283080000000     0.165007   
C193     C      0.632460000000     0.839560000000     0.476940000000    -0.0102036  
C194     C      0.682470000000     0.880340000000     0.563860000000    -0.0612439  
C195     C      0.621140000000     0.885900000000     0.451890000000    -0.0108581  
C196     C      0.660300000000     0.925200000000     0.547500000000     0.160494   
C197     C      0.874520000000     0.823310000000     0.573680000000    -0.0279292  
C198     C      0.887380000000     0.807840000000     0.462120000000    -0.081959   
C199     C      0.922640000000     0.853560000000     0.571180000000     0.00398102 
C200     C      0.919920000000     0.852320000000     0.450030000000     0.179144   
C201     C      0.889770000000     0.599330000000     0.447810000000    -0.016096   
C202     C      0.853980000000     0.563000000000     0.547660000000    -0.0645744  
C203     C      0.880490000000     0.646500000000     0.472390000000    -0.00494493 
C204     C      0.835230000000     0.609130000000     0.565540000000     0.163196   
C205     C      0.633910000000     0.674730000000     0.561950000000    -0.0339397  
C206     C      0.632110000000     0.685600000000     0.447060000000    -0.0862184  
C207     C      0.581040000000     0.656280000000     0.554660000000     0.007439   
C208     C      0.591630000000     0.647110000000     0.435780000000     0.179093   
C209     C      0.634060000000     0.842670000000     0.072200000000    -0.017881   
C210     C      0.657300000000     0.868700000000     0.959750000000    -0.0650699  
C211     C      0.650020000000     0.797290000000     0.049280000000    -0.00374467 
C212     C      0.703920000000     0.848640000000     0.974730000000     0.171214   
C213     C      0.877310000000     0.853210000000     0.081610000000    -0.0112047  
C214     C      0.853290000000     0.873490000000     0.973110000000    -0.062929   
C215     C      0.898490000000     0.811450000000     0.054940000000    -0.0210863  
C216     C      0.873140000000     0.831220000000     0.946070000000     0.161853   
C217     C      0.920090000000     0.636380000000     0.055330000000    -0.012699   
C218     C      0.864600000000     0.581000000000     0.988690000000    -0.0587438  
C219     C      0.938990000000     0.592200000000     0.078000000000    -0.00894751 
C220     C      0.910900000000     0.561930000000     0.968880000000     0.165429   
C221     C      0.626200000000     0.600450000000     0.080920000000    -0.00273594 
C222     C      0.641870000000     0.571900000000     0.969600000000    -0.0559704  
C223     C      0.659960000000     0.643070000000     0.064960000000    -0.0288873  
C224     C      0.679140000000     0.613890000000     0.961440000000     0.151017   
Cu1      Cu     0.539790000000     0.971300000000     0.964280000000     0.862184   
Cu2      Cu     0.037430000000     0.467580000000     0.082040000000     0.840595   
Cu3      Cu     0.506960000000     0.994020000000     0.446100000000     0.849587   
Cu4      Cu     0.003700000000     0.490680000000     0.563410000000     0.839667   
Cu5      Cu     0.322040000000     0.250010000000     0.005450000000     1.18278    
Cu6      Cu     0.246650000000     0.180060000000     0.014700000000     1.19081    
Cu7      Cu     0.297540000000     0.275590000000     0.510860000000     1.13905    
Cu8      Cu     0.217850000000     0.212880000000     0.507970000000     1.13638    
Cu9      Cu     0.489860000000     0.485920000000     0.966930000000     0.861467   
Cu10     Cu     0.991090000000     0.987830000000     0.084790000000     0.838116   
Cu11     Cu     0.496110000000     0.503320000000     0.445120000000     0.849842   
Cu12     Cu     0.998740000000     0.005570000000     0.562490000000     0.839738   
Cu13     Cu     0.282880000000     0.775720000000     0.010780000000     1.20273    
Cu14     Cu     0.206810000000     0.706350000000     0.010060000000     1.19365    
Cu15     Cu     0.285520000000     0.783770000000     0.506850000000     1.1369     
Cu16     Cu     0.205440000000     0.721700000000     0.512960000000     1.1561     
Cu17     Cu     0.989860000000     0.985920000000     0.966930000000     0.861041   
Cu18     Cu     0.491090000000     0.487830000000     0.084790000000     0.838531   
Cu19     Cu     0.996110000000     0.003320000000     0.445120000000     0.850228   
Cu20     Cu     0.498740000000     0.505570000000     0.562490000000     0.839352   
Cu21     Cu     0.782880000000     0.275720000000     0.010780000000     1.20269    
Cu22     Cu     0.706810000000     0.206350000000     0.010060000000     1.19357    
Cu23     Cu     0.785520000000     0.283770000000     0.506850000000     1.13702    
Cu24     Cu     0.705440000000     0.221700000000     0.512960000000     1.15603    
Cu25     Cu     0.039790000000     0.471290000000     0.964280000000     0.862611   
Cu26     Cu     0.537430000000     0.967580000000     0.082040000000     0.840184   
Cu27     Cu     0.006960000000     0.494020000000     0.446100000000     0.849899   
Cu28     Cu     0.503700000000     0.990680000000     0.563410000000     0.839275   
Cu29     Cu     0.822040000000     0.750010000000     0.005450000000     1.1829     
Cu30     Cu     0.746640000000     0.680060000000     0.014700000000     1.19089    
Cu31     Cu     0.797540000000     0.775590000000     0.510860000000     1.13904    
Cu32     Cu     0.717850000000     0.712880000000     0.507970000000     1.1364     
H1       H      0.327780000000     0.197050000000     0.759890000000     0.0384894  
H2       H      0.332680000000     0.270010000000     0.702420000000     0.0406278  
H3       H      0.239890000000     0.156660000000     0.767270000000     0.00165835 
H4       H      0.189700000000     0.200930000000     0.703680000000     0.0564045  
H5       H      0.345330000000     0.244070000000     0.812130000000     0.0528204  
H6       H      0.291390000000     0.291230000000     0.756980000000     0.0458313  
H7       H      0.201500000000     0.249740000000     0.754790000000     0.0644967  
H8       H      0.168640000000     0.155810000000     0.807230000000     0.133739   
H9       H      0.203430000000     0.221070000000     0.263550000000     0.0349525  
H10      H      0.241310000000     0.161280000000     0.208700000000     0.0434587  
H11      H      0.257170000000     0.299090000000     0.259550000000     0.00219183 
H12      H      0.328980000000     0.291110000000     0.197220000000     0.0538004  
H13      H      0.218350000000     0.178400000000     0.318660000000     0.0423554  
H14      H      0.291980000000     0.169980000000     0.260780000000     0.0411456  
H15      H      0.347180000000     0.249860000000     0.252350000000     0.0567515  
H16      H      0.318930000000     0.343150000000     0.294280000000     0.139523   
H17      H      0.150100000000     0.399980000000     0.418970000000     0.0439548  
H18      H      0.134610000000     0.316020000000     0.435770000000     0.0413043  
H19      H      0.187980000000     0.447800000000     0.520770000000     0.0056926  
H20      H      0.220670000000     0.389300000000     0.576590000000     0.0567912  
H21      H      0.087270000000     0.380410000000     0.424330000000     0.047589   
H22      H      0.102830000000     0.324750000000     0.508320000000     0.0459982  
H23      H      0.164640000000     0.365110000000     0.607450000000     0.0601877  
H24      H      0.180130000000     0.462340000000     0.621580000000     0.140235   
H25      H      0.425500000000     0.376690000000     0.613250000000     0.0422206  
H26      H      0.349890000000     0.339580000000     0.605410000000     0.0424868  
H27      H      0.402040000000     0.373380000000     0.415160000000     0.0120046  
H28      H      0.369450000000     0.296270000000     0.417140000000     0.064897   
H29      H      0.451690000000     0.331250000000     0.575220000000     0.0391383  
H30      H      0.380000000000     0.289420000000     0.594020000000     0.0375113  
H31      H      0.408230000000     0.280120000000     0.478470000000     0.0617934  
H32      H      0.458370000000     0.335030000000     0.379340000000     0.142225   
H33      H      0.411630000000     0.161260000000     0.501200000000     0.044967   
H34      H      0.422670000000     0.103600000000     0.418190000000     0.049988   
H35      H      0.359030000000     0.125250000000     0.603800000000     0.0014216  
H36      H      0.363850000000     0.045600000000     0.591950000000     0.0564184  
H37      H      0.377040000000     0.169450000000     0.430860000000     0.0398867  
H38      H      0.359450000000     0.085480000000     0.416920000000     0.0461305  
H39      H      0.324120000000     0.040330000000     0.525620000000     0.0626852  
H40      H      0.291140000000     0.089660000000     0.634170000000     0.137873   
H41      H      0.068290000000     0.138240000000     0.599080000000     0.0423355  
H42      H      0.150490000000     0.153600000000     0.597610000000     0.0482576  
H43      H      0.105760000000     0.119830000000     0.406820000000     0.00779991 
H44      H      0.154130000000     0.189510000000     0.403390000000     0.0525188  
H45      H      0.060240000000     0.185890000000     0.549060000000     0.0381852  
H46      H      0.136290000000     0.210390000000     0.580180000000     0.0370329  
H47      H      0.117480000000     0.218580000000     0.455700000000     0.0641243  
H48      H      0.063890000000     0.167200000000     0.357560000000     0.1406     
H49      H      0.155190000000     0.275410000000     0.091410000000     0.0367127  
H50      H      0.161070000000     0.359520000000     0.105830000000     0.0440268  
H51      H      0.227110000000     0.373520000000     0.004630000000     0.00227644 
H52      H      0.166030000000     0.402380000000     0.935690000000     0.0577744  
H53      H      0.121390000000     0.278820000000     0.019500000000     0.04289    
H54      H      0.099830000000     0.335560000000     0.098640000000     0.0416733  
H55      H      0.135630000000     0.345740000000     0.925900000000     0.067391   
H56      H      0.244530000000     0.370650000000     0.903680000000     0.1407     
H57      H      0.437180000000     0.320850000000     0.045570000000     0.0408048  
H58      H      0.397150000000     0.365670000000     0.125190000000     0.0415374  
H59      H      0.410430000000     0.341450000000     0.929450000000     0.00831067 
H60      H      0.355490000000     0.401180000000     0.936720000000     0.0595024  
H61      H      0.395550000000     0.283440000000     0.090570000000     0.0352985  
H62      H      0.339410000000     0.342980000000     0.094780000000     0.0416159  
H63      H      0.315130000000     0.364630000000     0.985400000000     0.0681761  
H64      H      0.354920000000     0.334010000000     0.857120000000     0.138814   
H65      H      0.473810000000     0.101020000000     0.102510000000     0.0372009  
H66      H      0.447150000000     0.155780000000     0.024100000000     0.0435849  
H67      H      0.429180000000     0.084540000000     0.931430000000     0.0075786  
H68      H      0.341640000000     0.083280000000     0.945940000000     0.0616447  
H69      H      0.413660000000     0.074650000000     0.113190000000     0.0440742  
H70      H      0.414780000000     0.158360000000     0.097290000000     0.0398669  
H71      H      0.344570000000     0.057030000000     0.022860000000     0.0653587  
H72      H      0.389240000000     0.020730000000     0.899600000000     0.141355   
H73      H      0.139930000000     0.168950000000     0.041740000000     0.0422914  
H74      H      0.096380000000     0.110510000000     0.110430000000     0.038187   
H75      H      0.162130000000     0.141550000000     0.937250000000     0.0150845  
H76      H      0.122860000000     0.065200000000     0.923510000000     0.0551463  
H77      H      0.175490000000     0.157980000000     0.109910000000     0.0376218  
H78      H      0.145600000000     0.076750000000     0.109580000000     0.0428314  
H79      H      0.160570000000     0.041450000000     0.979910000000     0.0601029  
H80      H      0.205120000000     0.097880000000     0.879810000000     0.145384   
H81      H      0.302430000000     0.725080000000     0.772200000000     0.0378642  
H82      H      0.316260000000     0.791980000000     0.703480000000     0.0397931  
H83      H      0.208430000000     0.692460000000     0.770330000000     0.00459822 
H84      H      0.166980000000     0.740900000000     0.699380000000     0.0568474  
H85      H      0.319080000000     0.774930000000     0.819560000000     0.0426123  
H86      H      0.275690000000     0.821750000000     0.749380000000     0.0420171  
H87      H      0.185520000000     0.790550000000     0.746590000000     0.0648581  
H88      H      0.137130000000     0.700640000000     0.803680000000     0.139118   
H89      H      0.169450000000     0.732230000000     0.274850000000     0.0348342  
H90      H      0.199630000000     0.676050000000     0.206130000000     0.0403713  
H91      H      0.224300000000     0.807580000000     0.262180000000     0.0029391  
H92      H      0.297450000000     0.800160000000     0.199140000000     0.0581915  
H93      H      0.188590000000     0.687930000000     0.323790000000     0.0421959  
H94      H      0.253460000000     0.677190000000     0.251990000000     0.0399814  
H95      H      0.312140000000     0.755610000000     0.251470000000     0.0569102  
H96      H      0.286200000000     0.853300000000     0.292190000000     0.140107   
H97      H      0.135630000000     0.905660000000     0.413450000000     0.0439182  
H98      H      0.119020000000     0.822920000000     0.438560000000     0.0417433  
H99      H      0.180330000000     0.956690000000     0.507560000000     0.00624084 
H100     H      0.212730000000     0.899930000000     0.568070000000     0.0577428  
H101     H      0.072910000000     0.888250000000     0.425650000000     0.0505113  
H102     H      0.091080000000     0.835960000000     0.512470000000     0.0476411  
H103     H      0.156940000000     0.879120000000     0.603070000000     0.0611219  
H104     H      0.178240000000     0.977260000000     0.606980000000     0.141654   
H105     H      0.436080000000     0.857100000000     0.596690000000     0.0419756  
H106     H      0.353740000000     0.842590000000     0.595900000000     0.0451411  
H107     H      0.397030000000     0.877350000000     0.405280000000     0.00986564 
H108     H      0.348650000000     0.807300000000     0.401590000000     0.0677692  
H109     H      0.443320000000     0.810000000000     0.545260000000     0.0386123  
H110     H      0.367480000000     0.785700000000     0.577980000000     0.0363384  
H111     H      0.385750000000     0.778160000000     0.452990000000     0.0652581  
H112     H      0.438700000000     0.830310000000     0.354860000000     0.142643   
H113     H      0.398450000000     0.671120000000     0.496870000000     0.0428091  
H114     H      0.407490000000     0.610720000000     0.416670000000     0.0481576  
H115     H      0.348060000000     0.637710000000     0.606500000000     0.000413624
H116     H      0.359650000000     0.559800000000     0.599110000000     0.0556368  
H117     H      0.360740000000     0.675490000000     0.428490000000     0.0400455  
H118     H      0.344760000000     0.590800000000     0.422140000000     0.0467     
H119     H      0.317270000000     0.548340000000     0.536690000000     0.0620153  
H120     H      0.281990000000     0.599340000000     0.638590000000     0.137477   
H121     H      0.081760000000     0.617300000000     0.617150000000     0.0431537  
H122     H      0.155610000000     0.657790000000     0.608930000000     0.0457601  
H123     H      0.100180000000     0.624350000000     0.418830000000     0.00837417 
H124     H      0.132160000000     0.701300000000     0.421670000000     0.050407   
H125     H      0.052760000000     0.662600000000     0.583430000000     0.0383539  
H126     H      0.123510000000     0.706670000000     0.598220000000     0.037402   
H127     H      0.094270000000     0.716660000000     0.484660000000     0.0607275  
H128     H      0.042840000000     0.662500000000     0.385980000000     0.139785   
H129     H      0.118400000000     0.800980000000     0.103740000000     0.038085   
H130     H      0.118320000000     0.884950000000     0.112820000000     0.0438971  
H131     H      0.182420000000     0.899370000000     0.013110000000     0.00578493 
H132     H      0.119350000000     0.922960000000     0.941750000000     0.057196   
H133     H      0.082660000000     0.799480000000     0.032960000000     0.0446334  
H134     H      0.058270000000     0.857170000000     0.108420000000     0.0400283  
H135     H      0.092810000000     0.864750000000     0.933990000000     0.0684555  
H136     H      0.201510000000     0.896860000000     0.912880000000     0.1465     
H137     H      0.390410000000     0.786670000000     0.035860000000     0.0410036  
H138     H      0.432450000000     0.846190000000     0.104110000000     0.0384401  
H139     H      0.367800000000     0.809840000000     0.930320000000     0.000725176
H140     H      0.410970000000     0.883860000000     0.913590000000     0.0571127  
H141     H      0.354420000000     0.798430000000     0.103090000000     0.0385573  
H142     H      0.383110000000     0.879700000000     0.100420000000     0.044201   
H143     H      0.372250000000     0.912070000000     0.963370000000     0.0709319  
H144     H      0.326310000000     0.852010000000     0.869560000000     0.13991    
H145     H      0.429250000000     0.620560000000     0.099830000000     0.0392225  
H146     H      0.406550000000     0.675200000000     0.018300000000     0.0414506  
H147     H      0.385520000000     0.603140000000     0.928750000000     0.00706046 
H148     H      0.298820000000     0.607430000000     0.940850000000     0.0546488  
H149     H      0.367960000000     0.597620000000     0.110500000000     0.0440453  
H150     H      0.374660000000     0.681370000000     0.091150000000     0.0387677  
H151     H      0.298810000000     0.581690000000     0.018470000000     0.0601301  
H152     H      0.342240000000     0.540770000000     0.898200000000     0.139456   
H153     H      0.093280000000     0.634870000000     0.055360000000     0.0403077  
H154     H      0.134390000000     0.587100000000     0.129330000000     0.0422964  
H155     H      0.116680000000     0.615640000000     0.936610000000     0.00984396 
H156     H      0.173090000000     0.556620000000     0.937750000000     0.0565058  
H157     H      0.136970000000     0.670690000000     0.099440000000     0.0342062  
H158     H      0.191700000000     0.610450000000     0.098160000000     0.0409057  
H159     H      0.213720000000     0.592400000000     0.986840000000     0.0629767  
H160     H      0.169730000000     0.624600000000     0.861320000000     0.139632   
H161     H      0.802430000000     0.225080000000     0.772200000000     0.0378705  
H162     H      0.816260000000     0.291980000000     0.703480000000     0.0397881  
H163     H      0.708430000000     0.192460000000     0.770330000000     0.00461244 
H164     H      0.666980000000     0.240900000000     0.699380000000     0.0568494  
H165     H      0.819080000000     0.274930000000     0.819560000000     0.0426159  
H166     H      0.775690000000     0.321760000000     0.749380000000     0.0420121  
H167     H      0.685520000000     0.290550000000     0.746590000000     0.0648613  
H168     H      0.637130000000     0.200630000000     0.803680000000     0.139068   
H169     H      0.669450000000     0.232230000000     0.274850000000     0.0348375  
H170     H      0.699620000000     0.176050000000     0.206130000000     0.0403665  
H171     H      0.724300000000     0.307580000000     0.262180000000     0.00294437 
H172     H      0.797450000000     0.300160000000     0.199140000000     0.0582032  
H173     H      0.688590000000     0.187930000000     0.323790000000     0.0422023  
H174     H      0.753460000000     0.177190000000     0.251990000000     0.0399818  
H175     H      0.812140000000     0.255610000000     0.251470000000     0.0569162  
H176     H      0.786200000000     0.353300000000     0.292190000000     0.140128   
H177     H      0.635630000000     0.405660000000     0.413450000000     0.0439532  
H178     H      0.619020000000     0.322920000000     0.438560000000     0.0417386  
H179     H      0.680330000000     0.456690000000     0.507560000000     0.00629853 
H180     H      0.712730000000     0.399930000000     0.568070000000     0.0577572  
H181     H      0.572910000000     0.388250000000     0.425650000000     0.0505258  
H182     H      0.591080000000     0.335960000000     0.512470000000     0.0476332  
H183     H      0.656940000000     0.379120000000     0.603070000000     0.0611221  
H184     H      0.678240000000     0.477260000000     0.606980000000     0.141619   
H185     H      0.936080000000     0.357100000000     0.596690000000     0.0419723  
H186     H      0.853740000000     0.342590000000     0.595900000000     0.0451622  
H187     H      0.897030000000     0.377350000000     0.405280000000     0.00988415 
H188     H      0.848650000000     0.307300000000     0.401590000000     0.067751   
H189     H      0.943320000000     0.310000000000     0.545260000000     0.0386018  
H190     H      0.867480000000     0.285700000000     0.577980000000     0.0363404  
H191     H      0.885750000000     0.278150000000     0.452990000000     0.0652211  
H192     H      0.938700000000     0.330310000000     0.354860000000     0.142635   
H193     H      0.898450000000     0.171120000000     0.496870000000     0.042791   
H194     H      0.907490000000     0.110730000000     0.416670000000     0.0481713  
H195     H      0.848060000000     0.137710000000     0.606500000000     0.000409698
H196     H      0.859650000000     0.059800000000     0.599110000000     0.0556803  
H197     H      0.860740000000     0.175490000000     0.428490000000     0.0400298  
H198     H      0.844760000000     0.090800000000     0.422140000000     0.0467282  
H199     H      0.817270000000     0.048340000000     0.536690000000     0.0620673  
H200     H      0.781990000000     0.099340000000     0.638590000000     0.137511   
H201     H      0.581760000000     0.117310000000     0.617150000000     0.0431742  
H202     H      0.655610000000     0.157790000000     0.608930000000     0.0457709  
H203     H      0.600180000000     0.124350000000     0.418830000000     0.00839136 
H204     H      0.632160000000     0.201290000000     0.421670000000     0.0504047  
H205     H      0.552760000000     0.162600000000     0.583430000000     0.0383554  
H206     H      0.623510000000     0.206670000000     0.598220000000     0.037388   
H207     H      0.594270000000     0.216660000000     0.484660000000     0.060726   
H208     H      0.542840000000     0.162500000000     0.385980000000     0.139791   
H209     H      0.618400000000     0.300980000000     0.103740000000     0.0380863  
H210     H      0.618320000000     0.384950000000     0.112820000000     0.0439216  
H211     H      0.682420000000     0.399370000000     0.013110000000     0.0058128  
H212     H      0.619350000000     0.422960000000     0.941750000000     0.057239   
H213     H      0.582660000000     0.299480000000     0.032960000000     0.0446304  
H214     H      0.558270000000     0.357170000000     0.108420000000     0.0400273  
H215     H      0.592810000000     0.364760000000     0.933990000000     0.0684728  
H216     H      0.701510000000     0.396860000000     0.912880000000     0.146534   
H217     H      0.890410000000     0.286670000000     0.035860000000     0.0410099  
H218     H      0.932450000000     0.346190000000     0.104110000000     0.0384306  
H219     H      0.867790000000     0.309840000000     0.930320000000     0.000725597
H220     H      0.910970000000     0.383850000000     0.913590000000     0.0571287  
H221     H      0.854420000000     0.298430000000     0.103090000000     0.0385695  
H222     H      0.883110000000     0.379700000000     0.100420000000     0.0442269  
H223     H      0.872250000000     0.412070000000     0.963370000000     0.0710003  
H224     H      0.826310000000     0.352000000000     0.869560000000     0.139875   
H225     H      0.929250000000     0.120560000000     0.099830000000     0.0392341  
H226     H      0.906550000000     0.175200000000     0.018300000000     0.0414488  
H227     H      0.885520000000     0.103140000000     0.928750000000     0.00707072 
H228     H      0.798820000000     0.107430000000     0.940850000000     0.0546597  
H229     H      0.867960000000     0.097620000000     0.110500000000     0.0440695  
H230     H      0.874660000000     0.181370000000     0.091150000000     0.0387657  
H231     H      0.798810000000     0.081690000000     0.018470000000     0.0601532  
H232     H      0.842240000000     0.040770000000     0.898200000000     0.13949    
H233     H      0.593280000000     0.134870000000     0.055360000000     0.0403068  
H234     H      0.634390000000     0.087100000000     0.129330000000     0.0423275  
H235     H      0.616680000000     0.115640000000     0.936610000000     0.00986072 
H236     H      0.673090000000     0.056620000000     0.937750000000     0.0565294  
H237     H      0.636970000000     0.170690000000     0.099440000000     0.0342059  
H238     H      0.691700000000     0.110450000000     0.098160000000     0.0409283  
H239     H      0.713720000000     0.092390000000     0.986840000000     0.0629617  
H240     H      0.669730000000     0.124590000000     0.861320000000     0.139593   
H241     H      0.827780000000     0.697050000000     0.759890000000     0.0384766  
H242     H      0.832680000000     0.770010000000     0.702420000000     0.0406231  
H243     H      0.739890000000     0.656660000000     0.767280000000     0.00162513 
H244     H      0.689710000000     0.700930000000     0.703680000000     0.056436   
H245     H      0.845340000000     0.744070000000     0.812130000000     0.0528058  
H246     H      0.791390000000     0.791230000000     0.756980000000     0.0458266  
H247     H      0.701500000000     0.749740000000     0.754790000000     0.0645075  
H248     H      0.668640000000     0.655810000000     0.807230000000     0.133689   
H249     H      0.703430000000     0.721070000000     0.263550000000     0.0349506  
H250     H      0.741310000000     0.661280000000     0.208700000000     0.0434476  
H251     H      0.757170000000     0.799090000000     0.259550000000     0.00218533 
H252     H      0.828980000000     0.791110000000     0.197220000000     0.0538015  
H253     H      0.718350000000     0.678400000000     0.318660000000     0.0423442  
H254     H      0.791980000000     0.669980000000     0.260780000000     0.0411297  
H255     H      0.847180000000     0.749860000000     0.252350000000     0.0567508  
H256     H      0.818930000000     0.843150000000     0.294280000000     0.139507   
H257     H      0.650100000000     0.899980000000     0.418970000000     0.0439365  
H258     H      0.634600000000     0.816020000000     0.435770000000     0.0412965  
H259     H      0.687990000000     0.947800000000     0.520770000000     0.00565516 
H260     H      0.720670000000     0.889300000000     0.576590000000     0.0567602  
H261     H      0.587270000000     0.880410000000     0.424330000000     0.0475838  
H262     H      0.602830000000     0.824750000000     0.508320000000     0.0459956  
H263     H      0.664640000000     0.865110000000     0.607450000000     0.0601698  
H264     H      0.680130000000     0.962340000000     0.621580000000     0.140106   
H265     H      0.925500000000     0.876690000000     0.613250000000     0.0422016  
H266     H      0.849890000000     0.839580000000     0.605410000000     0.0424752  
H267     H      0.902040000000     0.873380000000     0.415160000000     0.0119774  
H268     H      0.869460000000     0.796270000000     0.417140000000     0.0649007  
H269     H      0.951690000000     0.831250000000     0.575220000000     0.0391376  
H270     H      0.880000000000     0.789420000000     0.594020000000     0.0375128  
H271     H      0.908230000000     0.780120000000     0.478470000000     0.061801   
H272     H      0.958370000000     0.835030000000     0.379350000000     0.142286   
H273     H      0.911630000000     0.661260000000     0.501200000000     0.0449698  
H274     H      0.922670000000     0.603600000000     0.418190000000     0.0499745  
H275     H      0.859030000000     0.625250000000     0.603800000000     0.00142735 
H276     H      0.863850000000     0.545600000000     0.591950000000     0.0563715  
H277     H      0.877040000000     0.669450000000     0.430860000000     0.0398841  
H278     H      0.859450000000     0.585480000000     0.416920000000     0.046098   
H279     H      0.824120000000     0.540330000000     0.525620000000     0.0626259  
H280     H      0.791140000000     0.589660000000     0.634170000000     0.137847   
H281     H      0.568290000000     0.638240000000     0.599080000000     0.0423312  
H282     H      0.650490000000     0.653600000000     0.597610000000     0.0482409  
H283     H      0.605760000000     0.619830000000     0.406820000000     0.00778076 
H284     H      0.654130000000     0.689510000000     0.403390000000     0.0525275  
H285     H      0.560240000000     0.685890000000     0.549060000000     0.0381909  
H286     H      0.636290000000     0.710390000000     0.580180000000     0.0370288  
H287     H      0.617480000000     0.718580000000     0.455700000000     0.0641514  
H288     H      0.563900000000     0.667200000000     0.357560000000     0.14056    
H289     H      0.655190000000     0.775420000000     0.091410000000     0.0367211  
H290     H      0.661070000000     0.859520000000     0.105830000000     0.0440082  
H291     H      0.727110000000     0.873520000000     0.004630000000     0.00225496 
H292     H      0.666030000000     0.902380000000     0.935690000000     0.057742   
H293     H      0.621390000000     0.778820000000     0.019500000000     0.0428964  
H294     H      0.599830000000     0.835560000000     0.098640000000     0.0416637  
H295     H      0.635630000000     0.845740000000     0.925900000000     0.0673862  
H296     H      0.744530000000     0.870650000000     0.903680000000     0.140673   
H297     H      0.937180000000     0.820850000000     0.045570000000     0.0408029  
H298     H      0.897150000000     0.865670000000     0.125190000000     0.0415395  
H299     H      0.910430000000     0.841450000000     0.929450000000     0.00829763 
H300     H      0.855490000000     0.901180000000     0.936720000000     0.0594778  
H301     H      0.895550000000     0.783440000000     0.090570000000     0.0352958  
H302     H      0.839410000000     0.842980000000     0.094780000000     0.0416174  
H303     H      0.815130000000     0.864630000000     0.985400000000     0.0681676  
H304     H      0.854920000000     0.834010000000     0.857120000000     0.138805   
H305     H      0.973810000000     0.601030000000     0.102510000000     0.0371869  
H306     H      0.947150000000     0.655780000000     0.024100000000     0.0435821  
H307     H      0.929180000000     0.584540000000     0.931430000000     0.0075685  
H308     H      0.841640000000     0.583280000000     0.945940000000     0.0616255  
H309     H      0.913660000000     0.574650000000     0.113190000000     0.044046   
H310     H      0.914780000000     0.658360000000     0.097290000000     0.0398593  
H311     H      0.844560000000     0.557030000000     0.022860000000     0.0653168  
H312     H      0.889240000000     0.520730000000     0.899600000000     0.141315   
H313     H      0.639920000000     0.668950000000     0.041740000000     0.0423058  
H314     H      0.596380000000     0.610510000000     0.110430000000     0.0381654  
H315     H      0.662130000000     0.641550000000     0.937250000000     0.0150778  
H316     H      0.622850000000     0.565200000000     0.923510000000     0.0551076  
H317     H      0.675490000000     0.657980000000     0.109910000000     0.0376362  
H318     H      0.645600000000     0.576750000000     0.109580000000     0.0427897  
H319     H      0.660570000000     0.541450000000     0.979910000000     0.0600436  
H320     H      0.705120000000     0.597880000000     0.879810000000     0.145368   
N1       N      0.273290000000     0.210480000000     0.823980000000    -0.187559   
N2       N      0.259720000000     0.238580000000     0.696610000000    -0.171545   
N3       N      0.261970000000     0.244170000000     0.323010000000    -0.191744   
N4       N      0.287750000000     0.224610000000     0.196400000000    -0.172401   
N5       N      0.117980000000     0.417830000000     0.505250000000    -0.17545    
N6       N      0.177170000000     0.344920000000     0.513570000000    -0.167482   
N7       N      0.428360000000     0.378360000000     0.509980000000    -0.182121   
N8       N      0.352490000000     0.317320000000     0.510410000000    -0.213888   
N9       N      0.337370000000     0.142540000000     0.512270000000    -0.186523   
N10      N      0.393750000000     0.067900000000     0.501630000000    -0.155038   
N11      N      0.073880000000     0.127630000000     0.497110000000    -0.182664   
N12      N      0.160700000000     0.173670000000     0.501860000000    -0.209705   
N13      N      0.194070000000     0.305540000000     0.011110000000    -0.195071   
N14      N      0.129100000000     0.373480000000     0.017970000000    -0.160301   
N15      N      0.374680000000     0.295340000000     0.995220000000    -0.239302   
N16      N      0.379960000000     0.387740000000     0.030940000000    -0.163491   
N17      N      0.443760000000     0.061310000000     0.023770000000    -0.182617   
N18      N      0.375260000000     0.126000000000     0.019370000000    -0.172419   
N19      N      0.198030000000     0.130750000000     0.023280000000    -0.236815   
N20      N      0.108310000000     0.077100000000     0.022200000000    -0.163629   
N21      N      0.244980000000     0.745680000000     0.825320000000    -0.189521   
N22      N      0.241700000000     0.766980000000     0.694830000000    -0.173417   
N23      N      0.233300000000     0.753190000000     0.325130000000    -0.194325   
N24      N      0.250470000000     0.736360000000     0.195950000000    -0.173992   
N25      N      0.108840000000     0.928720000000     0.500510000000    -0.175498   
N26      N      0.165770000000     0.854420000000     0.510430000000    -0.165897   
N27      N      0.429410000000     0.868960000000     0.495120000000    -0.183015   
N28      N      0.342770000000     0.822740000000     0.500160000000    -0.210019   
N29      N      0.325050000000     0.651310000000     0.514300000000    -0.187507   
N30      N      0.384130000000     0.578200000000     0.504790000000    -0.155145   
N31      N      0.075500000000     0.617880000000     0.514290000000    -0.181542   
N32      N      0.150860000000     0.679580000000     0.514000000000    -0.215898   
N33      N      0.153790000000     0.830030000000     0.020370000000    -0.193366   
N34      N      0.084000000000     0.893630000000     0.024870000000    -0.16059    
N35      N      0.332280000000     0.824480000000     0.015260000000    -0.23844    
N36      N      0.421800000000     0.878050000000     0.014320000000    -0.16254    
N37      N      0.397490000000     0.580570000000     0.022240000000    -0.182202   
N38      N      0.333470000000     0.649250000000     0.014340000000    -0.174496   
N39      N      0.154240000000     0.660730000000     0.002180000000    -0.241178   
N40      N      0.149740000000     0.567630000000     0.033240000000    -0.16436    
N41      N      0.744980000000     0.245680000000     0.825320000000    -0.189516   
N42      N      0.741700000000     0.266980000000     0.694830000000    -0.173422   
N43      N      0.733300000000     0.253190000000     0.325130000000    -0.19434    
N44      N      0.750460000000     0.236360000000     0.195950000000    -0.173998   
N45      N      0.608840000000     0.428720000000     0.500510000000    -0.175497   
N46      N      0.665770000000     0.354420000000     0.510430000000    -0.165923   
N47      N      0.929410000000     0.368960000000     0.495120000000    -0.182995   
N48      N      0.842770000000     0.322740000000     0.500160000000    -0.210033   
N49      N      0.825050000000     0.151310000000     0.514300000000    -0.187519   
N50      N      0.884140000000     0.078200000000     0.504790000000    -0.155149   
N51      N      0.575500000000     0.117890000000     0.514290000000    -0.181468   
N52      N      0.650860000000     0.179580000000     0.514000000000    -0.215892   
N53      N      0.653790000000     0.330030000000     0.020370000000    -0.193364   
N54      N      0.584000000000     0.393630000000     0.024870000000    -0.160584   
N55      N      0.832280000000     0.324490000000     0.015260000000    -0.238369   
N56      N      0.921800000000     0.378050000000     0.014320000000    -0.162556   
N57      N      0.897490000000     0.080570000000     0.022240000000    -0.18218    
N58      N      0.833470000000     0.149250000000     0.014340000000    -0.174522   
N59      N      0.654240000000     0.160730000000     0.002180000000    -0.241173   
N60      N      0.649740000000     0.067630000000     0.033240000000    -0.164338   
N61      N      0.773290000000     0.710480000000     0.823980000000    -0.187577   
N62      N      0.759720000000     0.738590000000     0.696610000000    -0.171543   
N63      N      0.761970000000     0.744170000000     0.323010000000    -0.191745   
N64      N      0.787740000000     0.724610000000     0.196400000000    -0.172403   
N65      N      0.617980000000     0.917830000000     0.505250000000    -0.175412   
N66      N      0.677170000000     0.844920000000     0.513570000000    -0.16749    
N67      N      0.928360000000     0.878360000000     0.509980000000    -0.182139   
N68      N      0.852490000000     0.817320000000     0.510410000000    -0.213887   
N69      N      0.837370000000     0.642550000000     0.512270000000    -0.186534   
N70      N      0.893750000000     0.567900000000     0.501630000000    -0.15509    
N71      N      0.573880000000     0.627630000000     0.497110000000    -0.182658   
N72      N      0.660700000000     0.673670000000     0.501860000000    -0.209709   
N73      N      0.694080000000     0.805540000000     0.011110000000    -0.19513    
N74      N      0.629100000000     0.873480000000     0.017970000000    -0.160332   
N75      N      0.874670000000     0.795340000000     0.995220000000    -0.23936    
N76      N      0.879960000000     0.887740000000     0.030940000000    -0.163496   
N77      N      0.943760000000     0.561310000000     0.023770000000    -0.182633   
N78      N      0.875260000000     0.626010000000     0.019370000000    -0.172473   
N79      N      0.698030000000     0.630750000000     0.023280000000    -0.236861   
N80      N      0.608310000000     0.577100000000     0.022200000000    -0.163659   
O1       O      0.085110000000     0.423170000000     0.968090000000    -0.39915    
O2       O      0.493650000000     0.018640000000     0.970900000000    -0.390083   
O3       O      0.047250000000     0.034030000000     0.970690000000    -0.399446   
O4       O      0.433030000000     0.437490000000     0.975500000000    -0.396861   
O5       O      0.435050000000     0.438220000000     0.081820000000    -0.398634   
O6       O      0.047380000000     0.036730000000     0.076980000000    -0.400102   
O7       O      0.492850000000     0.017420000000     0.077300000000    -0.394962   
O8       O      0.082040000000     0.418000000000     0.074180000000    -0.393086   
O9       O      0.063240000000     0.456370000000     0.452720000000    -0.391408   
O10      O      0.450640000000     0.031360000000     0.450700000000    -0.388657   
O11      O      0.039590000000     0.062890000000     0.447580000000    -0.397379   
O12      O      0.453770000000     0.443440000000     0.454310000000    -0.397332   
O13      O      0.460810000000     0.443390000000     0.560170000000    -0.405245   
O14      O      0.036750000000     0.067430000000     0.553570000000    -0.403716   
O15      O      0.442550000000     0.022840000000     0.555810000000    -0.383094   
O16      O      0.065330000000     0.459260000000     0.558760000000    -0.365936   
O17      O      0.314330000000     0.230340000000     0.916500000000    -0.453879   
O18      O      0.310400000000     0.252300000000     0.097230000000    -0.470953   
O19      O      0.357720000000     0.199560000000     0.024890000000    -0.47417    
O20      O      0.269210000000     0.285950000000     0.996390000000    -0.457934   
O21      O      0.211650000000     0.232510000000     0.025300000000    -0.475199   
O22      O      0.300090000000     0.144820000000     0.002230000000    -0.461779   
O23      O      0.262500000000     0.187920000000     0.104220000000    -0.476669   
O24      O      0.243310000000     0.192200000000     0.923900000000    -0.445779   
O25      O      0.283220000000     0.277280000000     0.420080000000    -0.450573   
O26      O      0.293300000000     0.261800000000     0.601180000000    -0.473125   
O27      O      0.326830000000     0.218360000000     0.499450000000    -0.458244   
O28      O      0.250390000000     0.318620000000     0.527250000000    -0.44726    
O29      O      0.189480000000     0.270170000000     0.497130000000    -0.46818    
O30      O      0.264060000000     0.169020000000     0.521970000000    -0.42768    
O31      O      0.223200000000     0.221130000000     0.600420000000    -0.46477    
O32      O      0.237110000000     0.212320000000     0.418920000000    -0.470944   
O33      O      0.190650000000     0.180010000000     0.828420000000    -0.267346   
O34      O      0.315150000000     0.314180000000     0.319050000000    -0.27452    
O35      O      0.149520000000     0.447280000000     0.604190000000    -0.268354   
O36      O      0.463790000000     0.342640000000     0.425080000000    -0.284068   
O37      O      0.288540000000     0.100240000000     0.589490000000    -0.267816   
O38      O      0.054030000000     0.163950000000     0.402920000000    -0.281241   
O39      O      0.227240000000     0.340850000000     0.917170000000    -0.269868   
O40      O      0.345150000000     0.314250000000     0.894350000000    -0.279907   
O41      O      0.399440000000     0.017440000000     0.944490000000    -0.274975   
O42      O      0.216940000000     0.101490000000     0.924300000000    -0.276754   
O43      O      0.035610000000     0.938240000000     0.972870000000    -0.399022   
O44      O      0.444320000000     0.533830000000     0.971350000000    -0.389939   
O45      O      0.096400000000     0.519560000000     0.975760000000    -0.402382   
O46      O      0.482640000000     0.922960000000     0.965030000000    -0.395348   
O47      O      0.481050000000     0.919150000000     0.071240000000    -0.399907   
O48      O      0.093790000000     0.516790000000     0.081990000000    -0.400102   
O49      O      0.446130000000     0.537180000000     0.077620000000    -0.394651   
O50      O      0.036120000000     0.938360000000     0.079280000000    -0.393058   
O51      O      0.052480000000     0.966000000000     0.449670000000    -0.391733   
O52      O      0.439680000000     0.540810000000     0.451890000000    -0.388281   
O53      O      0.049370000000     0.553720000000     0.457060000000    -0.397059   
O54      O      0.463410000000     0.934410000000     0.446880000000    -0.396997   
O55      O      0.465610000000     0.928960000000     0.552810000000    -0.405251   
O56      O      0.041980000000     0.552640000000     0.562890000000    -0.403646   
O57      O      0.437010000000     0.536910000000     0.557880000000    -0.383769   
O58      O      0.060110000000     0.973840000000     0.554880000000    -0.365642   
O59      O      0.282440000000     0.761850000000     0.920820000000    -0.473092   
O60      O      0.269790000000     0.770180000000     0.100480000000    -0.48646    
O61      O      0.317770000000     0.723320000000     0.022740000000    -0.477208   
O62      O      0.228830000000     0.810910000000     0.001230000000    -0.44942    
O63      O      0.172210000000     0.757090000000     0.031270000000    -0.472642   
O64      O      0.259040000000     0.669940000000     0.998240000000    -0.471296   
O65      O      0.221370000000     0.705910000000     0.100960000000    -0.473764   
O66      O      0.209810000000     0.726950000000     0.921920000000    -0.442233   
O67      O      0.264850000000     0.783940000000     0.418740000000    -0.453983   
O68      O      0.280520000000     0.777010000000     0.599210000000    -0.472545   
O69      O      0.313250000000     0.726070000000     0.495620000000    -0.47021    
O70      O      0.239250000000     0.828130000000     0.519630000000    -0.439      
O71      O      0.176100000000     0.778510000000     0.499590000000    -0.455899   
O72      O      0.252830000000     0.679210000000     0.530820000000    -0.437057   
O73      O      0.208880000000     0.739330000000     0.601400000000    -0.47938    
O74      O      0.217830000000     0.719550000000     0.422410000000    -0.478926   
O75      O      0.160230000000     0.724450000000     0.823780000000    -0.257052   
O76      O      0.284400000000     0.824540000000     0.317330000000    -0.274239   
O77      O      0.146360000000     0.962490000000     0.593550000000    -0.26837    
O78      O      0.448860000000     0.833400000000     0.400120000000    -0.281826   
O79      O      0.278700000000     0.608780000000     0.593510000000    -0.267697   
O80      O      0.038310000000     0.654430000000     0.431720000000    -0.283209   
O81      O      0.185720000000     0.866400000000     0.926240000000    -0.265056   
O82      O      0.314560000000     0.851060000000     0.914200000000    -0.274234   
O83      O      0.351680000000     0.537650000000     0.943440000000    -0.273958   
O84      O      0.180690000000     0.643720000000     0.898710000000    -0.278494   
O85      O      0.535610000000     0.438240000000     0.972870000000    -0.399048   
O86      O      0.944320000000     0.033830000000     0.971350000000    -0.389761   
O87      O      0.596400000000     0.019560000000     0.975760000000    -0.402235   
O88      O      0.982640000000     0.422970000000     0.965030000000    -0.395366   
O89      O      0.981050000000     0.419160000000     0.071240000000    -0.399908   
O90      O      0.593790000000     0.016790000000     0.081990000000    -0.399918   
O91      O      0.946130000000     0.037180000000     0.077620000000    -0.394482   
O92      O      0.536120000000     0.438360000000     0.079280000000    -0.393086   
O93      O      0.552480000000     0.466000000000     0.449670000000    -0.391536   
O94      O      0.939680000000     0.040810000000     0.451890000000    -0.388341   
O95      O      0.549370000000     0.053720000000     0.457060000000    -0.396893   
O96      O      0.963410000000     0.434400000000     0.446880000000    -0.397034   
O97      O      0.965610000000     0.428960000000     0.552810000000    -0.405325   
O98      O      0.541980000000     0.052640000000     0.562890000000    -0.403481   
O99      O      0.937010000000     0.036910000000     0.557880000000    -0.38383    
O100     O      0.560110000000     0.473840000000     0.554880000000    -0.36543    
O101     O      0.782440000000     0.261850000000     0.920820000000    -0.473087   
O102     O      0.769790000000     0.270180000000     0.100480000000    -0.486453   
O103     O      0.817770000000     0.223320000000     0.022740000000    -0.47725    
O104     O      0.728830000000     0.310910000000     0.001230000000    -0.449403   
O105     O      0.672210000000     0.257090000000     0.031270000000    -0.472629   
O106     O      0.759050000000     0.169940000000     0.998240000000    -0.471337   
O107     O      0.721370000000     0.205910000000     0.100960000000    -0.473755   
O108     O      0.709810000000     0.226950000000     0.921920000000    -0.442226   
O109     O      0.764850000000     0.283940000000     0.418740000000    -0.454009   
O110     O      0.780520000000     0.277010000000     0.599210000000    -0.472556   
O111     O      0.813240000000     0.226070000000     0.495620000000    -0.470299   
O112     O      0.739250000000     0.328130000000     0.519630000000    -0.43905    
O113     O      0.676100000000     0.278520000000     0.499590000000    -0.455943   
O114     O      0.752830000000     0.179210000000     0.530820000000    -0.437143   
O115     O      0.708880000000     0.239330000000     0.601400000000    -0.479374   
O116     O      0.717840000000     0.219550000000     0.422410000000    -0.478954   
O117     O      0.660230000000     0.224450000000     0.823780000000    -0.256984   
O118     O      0.784400000000     0.324540000000     0.317330000000    -0.274238   
O119     O      0.646350000000     0.462490000000     0.593550000000    -0.268223   
O120     O      0.948860000000     0.333400000000     0.400120000000    -0.28175    
O121     O      0.778700000000     0.108780000000     0.593510000000    -0.267725   
O122     O      0.538310000000     0.154430000000     0.431720000000    -0.283216   
O123     O      0.685720000000     0.366400000000     0.926240000000    -0.265055   
O124     O      0.814550000000     0.351060000000     0.914200000000    -0.274136   
O125     O      0.851680000000     0.037650000000     0.943440000000    -0.273898   
O126     O      0.680690000000     0.143720000000     0.898710000000    -0.278433   
O127     O      0.585110000000     0.923170000000     0.968090000000    -0.399019   
O128     O      0.993650000000     0.518640000000     0.970900000000    -0.390201   
O129     O      0.547250000000     0.534030000000     0.970690000000    -0.399634   
O130     O      0.933020000000     0.937490000000     0.975500000000    -0.396841   
O131     O      0.935050000000     0.938210000000     0.081820000000    -0.398621   
O132     O      0.547380000000     0.536730000000     0.076980000000    -0.400286   
O133     O      0.992850000000     0.517420000000     0.077300000000    -0.395124   
O134     O      0.582040000000     0.918000000000     0.074180000000    -0.393007   
O135     O      0.563240000000     0.956370000000     0.452720000000    -0.391443   
O136     O      0.950640000000     0.531360000000     0.450700000000    -0.388773   
O137     O      0.539590000000     0.562890000000     0.447580000000    -0.397361   
O138     O      0.953770000000     0.943440000000     0.454310000000    -0.397504   
O139     O      0.960810000000     0.943390000000     0.560170000000    -0.405414   
O140     O      0.536750000000     0.567430000000     0.553570000000    -0.403695   
O141     O      0.942550000000     0.522840000000     0.555810000000    -0.38323    
O142     O      0.565330000000     0.959260000000     0.558760000000    -0.365961   
O143     O      0.814330000000     0.730340000000     0.916500000000    -0.453895   
O144     O      0.810400000000     0.752300000000     0.097230000000    -0.470965   
O145     O      0.857720000000     0.699560000000     0.024890000000    -0.474192   
O146     O      0.769210000000     0.785950000000     0.996390000000    -0.457871   
O147     O      0.711650000000     0.732510000000     0.025300000000    -0.475293   
O148     O      0.800090000000     0.644820000000     0.002230000000    -0.461749   
O149     O      0.762500000000     0.687920000000     0.104220000000    -0.476669   
O150     O      0.743310000000     0.692200000000     0.923900000000    -0.445806   
O151     O      0.783220000000     0.777280000000     0.420080000000    -0.450575   
O152     O      0.793300000000     0.761800000000     0.601180000000    -0.473125   
O153     O      0.826830000000     0.718360000000     0.499450000000    -0.458249   
O154     O      0.750390000000     0.818620000000     0.527250000000    -0.447268   
O155     O      0.689480000000     0.770170000000     0.497130000000    -0.468182   
O156     O      0.764060000000     0.669020000000     0.521970000000    -0.427807   
O157     O      0.723200000000     0.721130000000     0.600420000000    -0.464775   
O158     O      0.737110000000     0.712320000000     0.418920000000    -0.470952   
O159     O      0.690660000000     0.680010000000     0.828420000000    -0.267339   
O160     O      0.815150000000     0.814180000000     0.319050000000    -0.274525   
O161     O      0.649510000000     0.947280000000     0.604190000000    -0.26828    
O162     O      0.963790000000     0.842640000000     0.425080000000    -0.284145   
O163     O      0.788540000000     0.600240000000     0.589490000000    -0.267827   
O164     O      0.554030000000     0.663950000000     0.402920000000    -0.28121    
O165     O      0.727240000000     0.840850000000     0.917170000000    -0.26985    
O166     O      0.845150000000     0.814250000000     0.894350000000    -0.279913   
O167     O      0.899440000000     0.517440000000     0.944490000000    -0.275036   
O168     O      0.716940000000     0.601490000000     0.924300000000    -0.276769   


