data_structure

_audit_creation_method RASPA-1.0
_audit_creation_date 2023-5-19
_audit_author_name 'Poobodin Mano'

_cell_length_a    42.8186
_cell_length_b    42.5361
_cell_length_c    42.9434
_cell_angle_alpha 90
_cell_angle_beta  90
_cell_angle_gamma 90
_cell_volume      78214.4

_symmetry_cell_setting          triclinic
_symmetry_space_group_name_Hall 'P 1'
_symmetry_space_group_name_H-M  'P 1'
_symmetry_Int_Tables_number     1

_symmetry_equiv_pos_as_xyz 'x,y,z'

loop_
_atom_site_label
_atom_site_type_symbol
_atom_site_fract_x
_atom_site_fract_y
_atom_site_fract_z
_atom_site_charge
C1       C      0.005060000000     0.064080000000     0.256430000000     0.433782   
C2       C      0.501870000000     0.440020000000     0.245070000000     0.436937   
C3       C      0.064590000000     0.001080000000     0.248490000000     0.437165   
C4       C      0.440900000000     0.501360000000     0.252180000000     0.435169   
C5       C      0.999880000000     0.189220000000     0.240900000000     0.406403   
C6       C      0.009270000000     0.313130000000     0.233940000000     0.407279   
C7       C      0.007580000000     0.254800000000     0.299620000000     0.420314   
C8       C      0.001770000000     0.250070000000     0.176560000000     0.422922   
C9       C      0.313460000000     0.006960000000     0.262530000000     0.39771    
C10      C      0.189690000000     0.011670000000     0.259600000000     0.402475   
C11      C      0.253170000000     0.001750000000     0.199100000000     0.424066   
C12      C      0.249210000000     0.015220000000     0.322270000000     0.421478   
C13      C      0.242920000000     0.006800000000     0.072080000000     0.402447   
C14      C      0.236930000000     0.519760000000     0.449010000000     0.401315   
C15      C      0.232390000000     0.073880000000     0.017160000000     0.432742   
C16      C      0.247080000000     0.450370000000     0.504090000000     0.424467   
C17      C      0.008940000000     0.244520000000     0.050100000000     0.398015   
C18      C      0.502880000000     0.247930000000     0.426870000000     0.40963    
C19      C      0.068020000000     0.244670000000     0.985760000000     0.42715    
C20      C      0.444020000000     0.249420000000     0.491270000000     0.423807   
C21      C      0.250290000000     0.196080000000     0.001920000000     0.395259   
C22      C      0.258030000000     0.320730000000     0.004790000000     0.39336    
C23      C      0.191920000000     0.261640000000     0.002990000000     0.393094   
C24      C      0.315810000000     0.253220000000     0.002640000000     0.394401   
C25      C      0.367400000000     0.262520000000     0.026600000000    -0.0164489  
C26      C      0.361340000000     0.224370000000     0.482330000000    -0.103396   
C27      C      0.397030000000     0.275590000000     0.011420000000    -0.00938935 
C28      C      0.392700000000     0.235100000000     0.468800000000     0.322109   
C29      C      0.141530000000     0.242860000000     0.024340000000    -0.0193258  
C30      C      0.142800000000     0.282430000000     0.480740000000    -0.105188   
C31      C      0.117580000000     0.223210000000     0.005990000000    -0.00872371 
C32      C      0.118190000000     0.263400000000     0.463160000000     0.324726   
C33      C      0.245160000000     0.369800000000     0.032060000000    -0.0180485  
C34      C      0.281490000000     0.370550000000     0.486030000000    -0.101275   
C35      C      0.228250000000     0.398420000000     0.019240000000    -0.00365907 
C36      C      0.269340000000     0.403710000000     0.477420000000     0.320065   
C37      C      0.228570000000     0.146540000000     0.480600000000    -0.0200599  
C38      C      0.268930000000     0.145850000000     0.023420000000    -0.107511   
C39      C      0.208390000000     0.123360000000     0.499580000000    -0.00548099 
C40      C      0.248430000000     0.123660000000     0.042200000000     0.328382   
C41      C      0.211970000000     0.508380000000     0.398620000000    -0.015533   
C42      C      0.253270000000     0.049930000000     0.402510000000    -0.100927   
C43      C      0.228810000000     0.493820000000     0.370900000000    -0.00469734 
C44      C      0.267550000000     0.038900000000     0.371510000000     0.321149   
C45      C      0.265460000000     0.028620000000     0.119800000000    -0.0180871  
C46      C      0.220570000000     0.490180000000     0.122380000000    -0.101644   
C47      C      0.278870000000     0.014600000000     0.149680000000    -0.0127004  
C48      C      0.235570000000     0.474680000000     0.151010000000     0.324721   
C49      C      0.515040000000     0.222940000000     0.376640000000    -0.0145465  
C50      C      0.479710000000     0.270350000000     0.379180000000    -0.102688   
C51      C      0.031580000000     0.237130000000     0.348470000000    -0.00403611 
C52      C      0.993980000000     0.282500000000     0.348750000000     0.334243   
C53      C      0.494330000000     0.218570000000     0.099350000000    -0.0195117  
C54      C      0.032700000000     0.263620000000     0.098820000000    -0.105546   
C55      C      0.477730000000     0.233310000000     0.127340000000    -0.00305934 
C56      C      0.017250000000     0.277030000000     0.127950000000     0.324168   
C57      C      0.140470000000     0.494890000000     0.283770000000    -0.0144325  
C58      C      0.140730000000     0.035490000000     0.240980000000    -0.097143   
C59      C      0.113220000000     0.478170000000     0.268190000000    -0.00387119 
C60      C      0.114470000000     0.017670000000     0.224330000000     0.320491   
C61      C      0.363110000000     0.032430000000     0.249310000000    -0.0169489  
C62      C      0.362130000000     0.983630000000     0.282840000000    -0.0999527  
C63      C      0.390800000000     0.019240000000     0.231380000000    -0.00769232 
C64      C      0.392860000000     0.473000000000     0.267780000000     0.324195   
C65      C      0.036440000000     0.362420000000     0.246510000000    -0.0148206  
C66      C      0.992020000000     0.362050000000     0.208260000000    -0.0892774  
C67      C      0.521110000000     0.389470000000     0.264070000000    -0.00437911 
C68      C      0.478450000000     0.391640000000     0.223350000000     0.324504   
C69      C      0.473790000000     0.140990000000     0.260330000000    -0.0197751  
C70      C      0.018310000000     0.137860000000     0.221920000000    -0.110968   
C71      C      0.489030000000     0.114590000000     0.279700000000    -0.0047608  
C72      C      0.033430000000     0.112360000000     0.241560000000     0.326051   
C73      C      0.005060000000     0.064080000000     0.756430000000     0.433773   
C74      C      0.501870000000     0.440020000000     0.745070000000     0.436929   
C75      C      0.064590000000     0.001080000000     0.748490000000     0.437164   
C76      C      0.440900000000     0.501360000000     0.752180000000     0.435392   
C77      C      0.999880000000     0.189220000000     0.740900000000     0.406415   
C78      C      0.009270000000     0.313130000000     0.733940000000     0.407268   
C79      C      0.007580000000     0.254800000000     0.799620000000     0.420197   
C80      C      0.001770000000     0.250070000000     0.676560000000     0.422814   
C81      C      0.313460000000     0.006960000000     0.762530000000     0.397723   
C82      C      0.189690000000     0.011670000000     0.759600000000     0.402484   
C83      C      0.253170000000     0.001750000000     0.699100000000     0.424076   
C84      C      0.249210000000     0.015220000000     0.822270000000     0.421496   
C85      C      0.242920000000     0.006800000000     0.572080000000     0.402536   
C86      C      0.236930000000     0.519760000000     0.949010000000     0.401084   
C87      C      0.232390000000     0.073880000000     0.517160000000     0.432947   
C88      C      0.247080000000     0.450370000000     0.004090000000     0.424185   
C89      C      0.008940000000     0.244520000000     0.550100000000     0.397791   
C90      C      0.502880000000     0.247930000000     0.926870000000     0.409719   
C91      C      0.068020000000     0.244670000000     0.485760000000     0.426959   
C92      C      0.444020000000     0.249420000000     0.991270000000     0.423997   
C93      C      0.250290000000     0.196080000000     0.501920000000     0.397745   
C94      C      0.258030000000     0.320730000000     0.504790000000     0.395384   
C95      C      0.191920000000     0.261640000000     0.502990000000     0.39532    
C96      C      0.315810000000     0.253220000000     0.502640000000     0.39664    
C97      C      0.367400000000     0.262520000000     0.526600000000    -0.0172059  
C98      C      0.361340000000     0.224370000000     0.982330000000    -0.102057   
C99      C      0.397030000000     0.275590000000     0.511420000000    -0.00562841 
C100     C      0.392700000000     0.235100000000     0.968800000000     0.322001   
C101     C      0.141530000000     0.242860000000     0.524340000000    -0.0200361  
C102     C      0.142800000000     0.282430000000     0.980740000000    -0.103834   
C103     C      0.117580000000     0.223210000000     0.505990000000    -0.00501164 
C104     C      0.118190000000     0.263400000000     0.963160000000     0.324492   
C105     C      0.245160000000     0.369800000000     0.532060000000    -0.0178443  
C106     C      0.281490000000     0.370550000000     0.986030000000    -0.10022    
C107     C      0.228250000000     0.398420000000     0.519240000000    -0.00360378 
C108     C      0.269340000000     0.403710000000     0.977420000000     0.321224   
C109     C      0.228570000000     0.146540000000     0.980590000000    -0.0197059  
C110     C      0.268930000000     0.145850000000     0.523410000000    -0.10722    
C111     C      0.208390000000     0.123360000000     0.999580000000    -0.00191259 
C112     C      0.248430000000     0.123660000000     0.542200000000     0.328322   
C113     C      0.211970000000     0.508380000000     0.898620000000    -0.0155539  
C114     C      0.253270000000     0.049930000000     0.902510000000    -0.100946   
C115     C      0.228810000000     0.493820000000     0.870900000000    -0.00468597 
C116     C      0.267550000000     0.038900000000     0.871510000000     0.321162   
C117     C      0.265460000000     0.028620000000     0.619800000000    -0.0180888  
C118     C      0.220570000000     0.490180000000     0.622380000000    -0.1017     
C119     C      0.278870000000     0.014600000000     0.649680000000    -0.0126961  
C120     C      0.235570000000     0.474680000000     0.651010000000     0.324733   
C121     C      0.515040000000     0.222940000000     0.876640000000    -0.0145512  
C122     C      0.479710000000     0.270350000000     0.879180000000    -0.102692   
C123     C      0.031580000000     0.237130000000     0.848470000000    -0.00404401 
C124     C      0.993980000000     0.282500000000     0.848750000000     0.334246   
C125     C      0.494330000000     0.218570000000     0.599350000000    -0.019536   
C126     C      0.032700000000     0.263620000000     0.598820000000    -0.105562   
C127     C      0.477730000000     0.233310000000     0.627340000000    -0.00302305 
C128     C      0.017250000000     0.277030000000     0.627950000000     0.324193   
C129     C      0.140470000000     0.494890000000     0.783770000000    -0.0144415  
C130     C      0.140730000000     0.035490000000     0.740980000000    -0.097148   
C131     C      0.113220000000     0.478170000000     0.768190000000    -0.00387164 
C132     C      0.114470000000     0.017670000000     0.724330000000     0.320495   
C133     C      0.363110000000     0.032430000000     0.749310000000    -0.0169545  
C134     C      0.362130000000     0.983630000000     0.782840000000    -0.0999731  
C135     C      0.390800000000     0.019240000000     0.731380000000    -0.00768236 
C136     C      0.392860000000     0.473000000000     0.767780000000     0.324208   
C137     C      0.036440000000     0.362420000000     0.746510000000    -0.0148607  
C138     C      0.992020000000     0.362050000000     0.708260000000    -0.0894536  
C139     C      0.521110000000     0.389470000000     0.764070000000    -0.00437068 
C140     C      0.478450000000     0.391640000000     0.723340000000     0.324667   
C141     C      0.473790000000     0.140990000000     0.760330000000    -0.0197524  
C142     C      0.018310000000     0.137860000000     0.721920000000    -0.110986   
C143     C      0.489030000000     0.114590000000     0.779700000000    -0.00477596 
C144     C      0.033430000000     0.112360000000     0.741560000000     0.326054   
C145     C      0.005060000000     0.564070000000     0.256430000000     0.433454   
C146     C      0.501870000000     0.940020000000     0.245070000000     0.436902   
C147     C      0.064590000000     0.501080000000     0.248490000000     0.441504   
C148     C      0.440900000000     0.001360000000     0.252180000000     0.424707   
C149     C      0.999880000000     0.689220000000     0.240900000000     0.406416   
C150     C      0.009270000000     0.813130000000     0.233940000000     0.407272   
C151     C      0.007580000000     0.754800000000     0.299620000000     0.4203     
C152     C      0.001770000000     0.750070000000     0.176560000000     0.422906   
C153     C      0.313460000000     0.506960000000     0.262530000000     0.403826   
C154     C      0.189690000000     0.511670000000     0.259600000000     0.408345   
C155     C      0.253170000000     0.501750000000     0.199100000000     0.434487   
C156     C      0.249210000000     0.515220000000     0.322270000000     0.42747    
C157     C      0.242920000000     0.506800000000     0.072080000000     0.402899   
C158     C      0.236930000000     0.019760000000     0.449010000000     0.400089   
C159     C      0.232390000000     0.573880000000     0.017160000000     0.432981   
C160     C      0.247080000000     0.950370000000     0.504090000000     0.423866   
C161     C      0.008940000000     0.744520000000     0.050100000000     0.398      
C162     C      0.502880000000     0.747930000000     0.426870000000     0.409609   
C163     C      0.068020000000     0.744670000000     0.985760000000     0.427112   
C164     C      0.444020000000     0.749420000000     0.491270000000     0.423786   
C165     C      0.250290000000     0.696080000000     0.001920000000     0.395269   
C166     C      0.258030000000     0.820730000000     0.004790000000     0.393312   
C167     C      0.191920000000     0.761650000000     0.002990000000     0.393105   
C168     C      0.315810000000     0.753220000000     0.002640000000     0.394382   
C169     C      0.367400000000     0.762520000000     0.026600000000    -0.016482   
C170     C      0.361340000000     0.724370000000     0.482330000000    -0.103413   
C171     C      0.397030000000     0.775590000000     0.011420000000    -0.00938743 
C172     C      0.392700000000     0.735100000000     0.468800000000     0.32211    
C173     C      0.141530000000     0.742860000000     0.024340000000    -0.0193565  
C174     C      0.142800000000     0.782430000000     0.480740000000    -0.105409   
C175     C      0.117580000000     0.723210000000     0.005990000000    -0.00867673 
C176     C      0.118190000000     0.763410000000     0.463160000000     0.324823   
C177     C      0.245160000000     0.869810000000     0.032060000000    -0.0180428  
C178     C      0.281490000000     0.870550000000     0.486030000000    -0.101243   
C179     C      0.228250000000     0.898420000000     0.019240000000    -0.00370075 
C180     C      0.269340000000     0.903710000000     0.477420000000     0.319951   
C181     C      0.228570000000     0.646540000000     0.480600000000    -0.020073   
C182     C      0.268930000000     0.645850000000     0.023420000000    -0.107544   
C183     C      0.208390000000     0.623360000000     0.499580000000    -0.0054777  
C184     C      0.248430000000     0.623660000000     0.042200000000     0.328406   
C185     C      0.211970000000     0.008380000000     0.398620000000    -0.0276036  
C186     C      0.253270000000     0.549930000000     0.402510000000    -0.100186   
C187     C      0.228810000000     0.993820000000     0.370900000000     0.00574463 
C188     C      0.267550000000     0.538900000000     0.371510000000     0.320968   
C189     C      0.265460000000     0.528620000000     0.119800000000    -0.0207974  
C190     C      0.220570000000     0.990180000000     0.122380000000    -0.0911965  
C191     C      0.278870000000     0.514600000000     0.149680000000    -0.00186075 
C192     C      0.235570000000     0.974680000000     0.151010000000     0.322333   
C193     C      0.515040000000     0.722940000000     0.376640000000    -0.014572   
C194     C      0.479710000000     0.770350000000     0.379180000000    -0.102702   
C195     C      0.031580000000     0.737130000000     0.348470000000    -0.004033   
C196     C      0.993980000000     0.782500000000     0.348750000000     0.334248   
C197     C      0.494330000000     0.718580000000     0.099350000000    -0.0194121  
C198     C      0.032700000000     0.763620000000     0.098820000000    -0.105476   
C199     C      0.477730000000     0.733310000000     0.127340000000    -0.00311291 
C200     C      0.017250000000     0.777030000000     0.127950000000     0.32413    
C201     C      0.140470000000     0.994890000000     0.283770000000    -0.00422064 
C202     C      0.140730000000     0.535490000000     0.240980000000    -0.0977387  
C203     C      0.113220000000     0.978170000000     0.268190000000    -0.006231   
C204     C      0.114470000000     0.517670000000     0.224330000000     0.324222   
C205     C      0.363110000000     0.532440000000     0.249310000000    -0.0175944  
C206     C      0.362130000000     0.483630000000     0.282840000000    -0.103752   
C207     C      0.390800000000     0.519240000000     0.231380000000    -0.00327967 
C208     C      0.392860000000     0.973000000000     0.267780000000     0.323507   
C209     C      0.036440000000     0.862420000000     0.246510000000    -0.0148464  
C210     C      0.992020000000     0.862050000000     0.208260000000    -0.0893024  
C211     C      0.521110000000     0.889470000000     0.264070000000    -0.00432673 
C212     C      0.478450000000     0.891640000000     0.223350000000     0.324532   
C213     C      0.473790000000     0.640990000000     0.260330000000    -0.0197464  
C214     C      0.018310000000     0.637860000000     0.221920000000    -0.111001   
C215     C      0.489030000000     0.614590000000     0.279700000000    -0.00485162 
C216     C      0.033430000000     0.612360000000     0.241560000000     0.326058   
C217     C      0.005060000000     0.564070000000     0.756430000000     0.433446   
C218     C      0.501870000000     0.940020000000     0.745070000000     0.436895   
C219     C      0.064590000000     0.501080000000     0.748490000000     0.441497   
C220     C      0.440900000000     0.001360000000     0.752180000000     0.424946   
C221     C      0.999880000000     0.689220000000     0.740900000000     0.406428   
C222     C      0.009270000000     0.813130000000     0.733940000000     0.40726    
C223     C      0.007580000000     0.754800000000     0.799620000000     0.420183   
C224     C      0.001770000000     0.750070000000     0.676560000000     0.422798   
C225     C      0.313460000000     0.506960000000     0.762530000000     0.403828   
C226     C      0.189690000000     0.511670000000     0.759600000000     0.408343   
C227     C      0.253170000000     0.501750000000     0.699100000000     0.434486   
C228     C      0.249210000000     0.515220000000     0.822270000000     0.427473   
C229     C      0.242920000000     0.506800000000     0.572080000000     0.402988   
C230     C      0.236930000000     0.019760000000     0.949010000000     0.399861   
C231     C      0.232390000000     0.573880000000     0.517160000000     0.433186   
C232     C      0.247080000000     0.950370000000     0.004090000000     0.423585   
C233     C      0.008940000000     0.744520000000     0.550100000000     0.397777   
C234     C      0.502880000000     0.747930000000     0.926870000000     0.409697   
C235     C      0.068020000000     0.744670000000     0.485760000000     0.426922   
C236     C      0.444020000000     0.749420000000     0.991270000000     0.423975   
C237     C      0.250290000000     0.696080000000     0.501920000000     0.397746   
C238     C      0.258030000000     0.820730000000     0.504790000000     0.395324   
C239     C      0.191920000000     0.761650000000     0.502990000000     0.39532    
C240     C      0.315810000000     0.753220000000     0.502640000000     0.396612   
C241     C      0.367400000000     0.762520000000     0.526600000000    -0.0172351  
C242     C      0.361340000000     0.724370000000     0.982330000000    -0.102081   
C243     C      0.397030000000     0.775590000000     0.511420000000    -0.00564584 
C244     C      0.392700000000     0.735100000000     0.968800000000     0.322002   
C245     C      0.141530000000     0.742860000000     0.524340000000    -0.0200638  
C246     C      0.142800000000     0.782430000000     0.980740000000    -0.104061   
C247     C      0.117580000000     0.723210000000     0.505990000000    -0.00497995 
C248     C      0.118190000000     0.763410000000     0.963160000000     0.32459    
C249     C      0.245160000000     0.869810000000     0.532060000000    -0.0178397  
C250     C      0.281490000000     0.870550000000     0.986030000000    -0.100195   
C251     C      0.228250000000     0.898420000000     0.519240000000    -0.00364601 
C252     C      0.269340000000     0.903710000000     0.977420000000     0.3211     
C253     C      0.228570000000     0.646540000000     0.980590000000    -0.0197207  
C254     C      0.268930000000     0.645850000000     0.523410000000    -0.107254   
C255     C      0.208390000000     0.623360000000     0.999580000000    -0.00192393 
C256     C      0.248430000000     0.623660000000     0.542200000000     0.328346   
C257     C      0.211970000000     0.008380000000     0.898620000000    -0.0275807  
C258     C      0.253270000000     0.549930000000     0.902510000000    -0.100207   
C259     C      0.228810000000     0.993820000000     0.870900000000     0.00571893 
C260     C      0.267550000000     0.538900000000     0.871510000000     0.320981   
C261     C      0.265460000000     0.528620000000     0.619800000000    -0.0207971  
C262     C      0.220570000000     0.990180000000     0.622380000000    -0.091255   
C263     C      0.278870000000     0.514600000000     0.649680000000    -0.00186432 
C264     C      0.235570000000     0.974680000000     0.651010000000     0.322346   
C265     C      0.515040000000     0.722940000000     0.876640000000    -0.0145767  
C266     C      0.479710000000     0.770350000000     0.879180000000    -0.102706   
C267     C      0.031580000000     0.737130000000     0.848470000000    -0.00404089 
C268     C      0.993980000000     0.782500000000     0.848750000000     0.334251   
C269     C      0.494330000000     0.718580000000     0.599350000000    -0.0194363  
C270     C      0.032700000000     0.763620000000     0.598820000000    -0.105492   
C271     C      0.477730000000     0.733310000000     0.627340000000    -0.00307664 
C272     C      0.017250000000     0.777030000000     0.627950000000     0.324155   
C273     C      0.140470000000     0.994890000000     0.783770000000    -0.00425204 
C274     C      0.140730000000     0.535490000000     0.740980000000    -0.0977424  
C275     C      0.113220000000     0.978170000000     0.768190000000    -0.00622629 
C276     C      0.114470000000     0.517670000000     0.724330000000     0.324219   
C277     C      0.363110000000     0.532440000000     0.749310000000    -0.017599   
C278     C      0.362130000000     0.483630000000     0.782840000000    -0.103766   
C279     C      0.390800000000     0.519240000000     0.731380000000    -0.00327755 
C280     C      0.392860000000     0.973000000000     0.767780000000     0.323521   
C281     C      0.036440000000     0.862420000000     0.746510000000    -0.0148866  
C282     C      0.992020000000     0.862050000000     0.708260000000    -0.0894787  
C283     C      0.521110000000     0.889470000000     0.764070000000    -0.00431822 
C284     C      0.478450000000     0.891640000000     0.723340000000     0.324695   
C285     C      0.473790000000     0.640990000000     0.760330000000    -0.0197237  
C286     C      0.018310000000     0.637860000000     0.721920000000    -0.111019   
C287     C      0.489030000000     0.614590000000     0.779700000000    -0.00486656 
C288     C      0.033430000000     0.612360000000     0.741560000000     0.326061   
C289     C      0.505060000000     0.064080000000     0.256430000000     0.434647   
C290     C      0.001870000000     0.440020000000     0.245070000000     0.428133   
C291     C      0.564590000000     0.001080000000     0.248490000000     0.437633   
C292     C      0.940900000000     0.501360000000     0.252180000000     0.434219   
C293     C      0.499880000000     0.189220000000     0.240900000000     0.398248   
C294     C      0.509270000000     0.313130000000     0.233940000000     0.414584   
C295     C      0.507580000000     0.254800000000     0.299620000000     0.427872   
C296     C      0.501770000000     0.250070000000     0.176560000000     0.430728   
C297     C      0.813460000000     0.006960000000     0.262530000000     0.397746   
C298     C      0.689690000000     0.011670000000     0.259600000000     0.402421   
C299     C      0.753170000000     0.001750000000     0.199100000000     0.42404    
C300     C      0.749210000000     0.015220000000     0.322270000000     0.421475   
C301     C      0.742920000000     0.006800000000     0.072080000000     0.402418   
C302     C      0.736930000000     0.519760000000     0.449010000000     0.401287   
C303     C      0.732390000000     0.073880000000     0.017160000000     0.432705   
C304     C      0.747080000000     0.450370000000     0.504090000000     0.424446   
C305     C      0.508950000000     0.244520000000     0.050100000000     0.398842   
C306     C      0.002880000000     0.247930000000     0.426870000000     0.400633   
C307     C      0.568020000000     0.244670000000     0.985760000000     0.427487   
C308     C      0.944030000000     0.249420000000     0.491270000000     0.422824   
C309     C      0.750290000000     0.196080000000     0.001920000000     0.39524    
C310     C      0.758030000000     0.320730000000     0.004790000000     0.393297   
C311     C      0.691920000000     0.261640000000     0.002990000000     0.393071   
C312     C      0.815810000000     0.253220000000     0.002640000000     0.394405   
C313     C      0.867400000000     0.262520000000     0.026600000000    -0.0163781  
C314     C      0.861340000000     0.224370000000     0.482330000000    -0.103401   
C315     C      0.897030000000     0.275590000000     0.011420000000    -0.00954272 
C316     C      0.892700000000     0.235100000000     0.468800000000     0.322111   
C317     C      0.641530000000     0.242860000000     0.024340000000    -0.0193316  
C318     C      0.642800000000     0.282430000000     0.480740000000    -0.105218   
C319     C      0.617580000000     0.223210000000     0.005990000000    -0.00877281 
C320     C      0.618190000000     0.263400000000     0.463160000000     0.324733   
C321     C      0.745160000000     0.369800000000     0.032060000000    -0.0180674  
C322     C      0.781490000000     0.370550000000     0.486030000000    -0.101318   
C323     C      0.728250000000     0.398420000000     0.019240000000    -0.00366979 
C324     C      0.769340000000     0.403710000000     0.477420000000     0.320088   
C325     C      0.728570000000     0.146540000000     0.480600000000    -0.0200632  
C326     C      0.768930000000     0.145850000000     0.023420000000    -0.107556   
C327     C      0.708390000000     0.123360000000     0.499580000000    -0.00552743 
C328     C      0.748430000000     0.123660000000     0.042200000000     0.328397   
C329     C      0.711970000000     0.508380000000     0.398620000000    -0.0155908  
C330     C      0.753270000000     0.049930000000     0.402510000000    -0.100949   
C331     C      0.728810000000     0.493820000000     0.370900000000    -0.00469357 
C332     C      0.767540000000     0.038900000000     0.371510000000     0.321014   
C333     C      0.765460000000     0.028620000000     0.119800000000    -0.0180841  
C334     C      0.720570000000     0.490180000000     0.122380000000    -0.101664   
C335     C      0.778870000000     0.014600000000     0.149680000000    -0.0127463  
C336     C      0.735570000000     0.474680000000     0.151010000000     0.324715   
C337     C      0.015040000000     0.222940000000     0.376640000000    -0.0231365  
C338     C      0.979710000000     0.270350000000     0.379180000000    -0.101184   
C339     C      0.531580000000     0.237130000000     0.348470000000    -0.00587311 
C340     C      0.493980000000     0.282500000000     0.348750000000     0.323716   
C341     C      0.994330000000     0.218570000000     0.099350000000    -0.00752751 
C342     C      0.532700000000     0.263620000000     0.098820000000    -0.105432   
C343     C      0.977730000000     0.233310000000     0.127340000000    -0.00155696 
C344     C      0.517250000000     0.277030000000     0.127950000000     0.324655   
C345     C      0.640470000000     0.494890000000     0.283770000000    -0.0144683  
C346     C      0.640730000000     0.035490000000     0.240980000000    -0.0971689  
C347     C      0.613220000000     0.478170000000     0.268190000000    -0.00383456 
C348     C      0.614470000000     0.017670000000     0.224330000000     0.320501   
C349     C      0.863110000000     0.032430000000     0.249310000000    -0.0169245  
C350     C      0.862130000000     0.983630000000     0.282840000000    -0.0999139  
C351     C      0.890810000000     0.019240000000     0.231380000000    -0.00776071 
C352     C      0.892870000000     0.473000000000     0.267780000000     0.324319   
C353     C      0.536440000000     0.362420000000     0.246510000000    -0.0145201  
C354     C      0.492020000000     0.362050000000     0.208260000000    -0.100742   
C355     C      0.021110000000     0.389470000000     0.264070000000    -0.00498269 
C356     C      0.978450000000     0.391640000000     0.223350000000     0.326167   
C357     C      0.973790000000     0.140990000000     0.260330000000    -0.0221315  
C358     C      0.518310000000     0.137860000000     0.221920000000    -0.106222   
C359     C      0.989030000000     0.114590000000     0.279700000000     0.00813038 
C360     C      0.533430000000     0.112360000000     0.241560000000     0.325111   
C361     C      0.505060000000     0.064080000000     0.756430000000     0.43464    
C362     C      0.001870000000     0.440020000000     0.745070000000     0.428108   
C363     C      0.564590000000     0.001080000000     0.748490000000     0.437634   
C364     C      0.940900000000     0.501360000000     0.752180000000     0.434439   
C365     C      0.499880000000     0.189220000000     0.740900000000     0.398246   
C366     C      0.509270000000     0.313130000000     0.733940000000     0.414587   
C367     C      0.507580000000     0.254800000000     0.799620000000     0.427763   
C368     C      0.501770000000     0.250070000000     0.676560000000     0.430638   
C369     C      0.813460000000     0.006960000000     0.762530000000     0.397759   
C370     C      0.689690000000     0.011670000000     0.759600000000     0.40243    
C371     C      0.753170000000     0.001750000000     0.699100000000     0.42405    
C372     C      0.749210000000     0.015220000000     0.822270000000     0.421493   
C373     C      0.742920000000     0.006800000000     0.572080000000     0.402507   
C374     C      0.736930000000     0.519760000000     0.949010000000     0.401055   
C375     C      0.732390000000     0.073880000000     0.517160000000     0.432912   
C376     C      0.747080000000     0.450370000000     0.004090000000     0.424161   
C377     C      0.508950000000     0.244520000000     0.550100000000     0.398617   
C378     C      0.002880000000     0.247930000000     0.926870000000     0.400723   
C379     C      0.568020000000     0.244670000000     0.485760000000     0.427294   
C380     C      0.944030000000     0.249420000000     0.991270000000     0.423014   
C381     C      0.750290000000     0.196080000000     0.501920000000     0.397741   
C382     C      0.758030000000     0.320730000000     0.504790000000     0.395337   
C383     C      0.691920000000     0.261640000000     0.502990000000     0.395312   
C384     C      0.815810000000     0.253220000000     0.502640000000     0.396659   
C385     C      0.867400000000     0.262520000000     0.526600000000    -0.0171392  
C386     C      0.861340000000     0.224370000000     0.982330000000    -0.102055   
C387     C      0.897030000000     0.275590000000     0.511420000000    -0.00576028 
C388     C      0.892700000000     0.235100000000     0.968800000000     0.322001   
C389     C      0.641530000000     0.242860000000     0.524340000000    -0.0200473  
C390     C      0.642800000000     0.282430000000     0.980740000000    -0.103854   
C391     C      0.617580000000     0.223210000000     0.505990000000    -0.00503212 
C392     C      0.618190000000     0.263400000000     0.963160000000     0.324497   
C393     C      0.745160000000     0.369800000000     0.532060000000    -0.0178617  
C394     C      0.781490000000     0.370550000000     0.986030000000    -0.100258   
C395     C      0.728250000000     0.398420000000     0.519240000000    -0.00361436 
C396     C      0.769340000000     0.403710000000     0.977420000000     0.321254   
C397     C      0.728570000000     0.146540000000     0.980590000000    -0.0197068  
C398     C      0.768930000000     0.145850000000     0.523410000000    -0.107264   
C399     C      0.708390000000     0.123360000000     0.999580000000    -0.00193931 
C400     C      0.748430000000     0.123660000000     0.542200000000     0.328336   
C401     C      0.711970000000     0.508380000000     0.898620000000    -0.0156119  
C402     C      0.753270000000     0.049930000000     0.902510000000    -0.100968   
C403     C      0.728810000000     0.493820000000     0.870900000000    -0.00468212 
C404     C      0.767540000000     0.038900000000     0.871510000000     0.321026   
C405     C      0.765460000000     0.028620000000     0.619800000000    -0.0180859  
C406     C      0.720570000000     0.490180000000     0.622380000000    -0.10172    
C407     C      0.778870000000     0.014600000000     0.649680000000    -0.0127422  
C408     C      0.735570000000     0.474680000000     0.651010000000     0.324727   
C409     C      0.015040000000     0.222940000000     0.876640000000    -0.0231448  
C410     C      0.979710000000     0.270350000000     0.879180000000    -0.101189   
C411     C      0.531580000000     0.237130000000     0.848470000000    -0.00588157 
C412     C      0.493980000000     0.282500000000     0.848750000000     0.323713   
C413     C      0.994330000000     0.218570000000     0.599350000000    -0.00750715 
C414     C      0.532700000000     0.263620000000     0.598820000000    -0.105447   
C415     C      0.977730000000     0.233310000000     0.627340000000    -0.00151678 
C416     C      0.517250000000     0.277030000000     0.627950000000     0.324681   
C417     C      0.640470000000     0.494890000000     0.783770000000    -0.0144774  
C418     C      0.640730000000     0.035490000000     0.740980000000    -0.097174   
C419     C      0.613220000000     0.478170000000     0.768190000000    -0.00383499 
C420     C      0.614470000000     0.017670000000     0.724330000000     0.320505   
C421     C      0.863110000000     0.032430000000     0.749310000000    -0.01693    
C422     C      0.862130000000     0.983630000000     0.782840000000    -0.0999342  
C423     C      0.890810000000     0.019240000000     0.731380000000    -0.00775117 
C424     C      0.892870000000     0.473000000000     0.767780000000     0.324332   
C425     C      0.536440000000     0.362420000000     0.746510000000    -0.0145604  
C426     C      0.492020000000     0.362050000000     0.708260000000    -0.100951   
C427     C      0.021110000000     0.389470000000     0.764070000000    -0.00497596 
C428     C      0.978450000000     0.391640000000     0.723340000000     0.326328   
C429     C      0.973790000000     0.140990000000     0.760330000000    -0.022111   
C430     C      0.518310000000     0.137860000000     0.721920000000    -0.106232   
C431     C      0.989030000000     0.114590000000     0.779700000000     0.00813191 
C432     C      0.533430000000     0.112360000000     0.741560000000     0.325113   
C433     C      0.505060000000     0.564070000000     0.256430000000     0.434321   
C434     C      0.001870000000     0.940020000000     0.245070000000     0.428112   
C435     C      0.564590000000     0.501080000000     0.248490000000     0.44199    
C436     C      0.940900000000     0.001360000000     0.252180000000     0.423756   
C437     C      0.499880000000     0.689220000000     0.240900000000     0.398246   
C438     C      0.509270000000     0.813130000000     0.233940000000     0.414583   
C439     C      0.507580000000     0.754800000000     0.299620000000     0.427869   
C440     C      0.501770000000     0.750070000000     0.176560000000     0.430724   
C441     C      0.813460000000     0.506960000000     0.262530000000     0.403871   
C442     C      0.689690000000     0.511670000000     0.259600000000     0.408305   
C443     C      0.753170000000     0.501750000000     0.199100000000     0.434481   
C444     C      0.749210000000     0.515220000000     0.322270000000     0.427478   
C445     C      0.742920000000     0.506800000000     0.072080000000     0.402871   
C446     C      0.736930000000     0.019760000000     0.449010000000     0.400058   
C447     C      0.732390000000     0.573880000000     0.017160000000     0.432945   
C448     C      0.747080000000     0.950370000000     0.504090000000     0.423844   
C449     C      0.508950000000     0.744520000000     0.050100000000     0.398828   
C450     C      0.002880000000     0.747930000000     0.426870000000     0.400602   
C451     C      0.568020000000     0.744670000000     0.985760000000     0.427449   
C452     C      0.944030000000     0.749420000000     0.491270000000     0.422802   
C453     C      0.750290000000     0.696080000000     0.001920000000     0.395249   
C454     C      0.758030000000     0.820730000000     0.004790000000     0.393249   
C455     C      0.691920000000     0.761650000000     0.002990000000     0.393081   
C456     C      0.815810000000     0.753220000000     0.002640000000     0.394386   
C457     C      0.867400000000     0.762520000000     0.026600000000    -0.0164114  
C458     C      0.861340000000     0.724370000000     0.482330000000    -0.103418   
C459     C      0.897030000000     0.775590000000     0.011420000000    -0.0095407  
C460     C      0.892700000000     0.735100000000     0.468800000000     0.322112   
C461     C      0.641530000000     0.742860000000     0.024340000000    -0.0193623  
C462     C      0.642800000000     0.782430000000     0.480740000000    -0.105438   
C463     C      0.617580000000     0.723210000000     0.005990000000    -0.00872597 
C464     C      0.618190000000     0.763410000000     0.463160000000     0.324829   
C465     C      0.745160000000     0.869810000000     0.032060000000    -0.0180615  
C466     C      0.781490000000     0.870550000000     0.486030000000    -0.101286   
C467     C      0.728250000000     0.898420000000     0.019240000000    -0.00371166 
C468     C      0.769340000000     0.903710000000     0.477420000000     0.319974   
C469     C      0.728570000000     0.646540000000     0.480600000000    -0.0200763  
C470     C      0.768930000000     0.645850000000     0.023420000000    -0.107589   
C471     C      0.708390000000     0.623360000000     0.499580000000    -0.00552426 
C472     C      0.748430000000     0.623660000000     0.042200000000     0.328421   
C473     C      0.711970000000     0.008380000000     0.398620000000    -0.027691   
C474     C      0.753270000000     0.549930000000     0.402510000000    -0.100206   
C475     C      0.728810000000     0.993820000000     0.370900000000     0.00576808 
C476     C      0.767540000000     0.538900000000     0.371510000000     0.320832   
C477     C      0.765460000000     0.528620000000     0.119800000000    -0.020798   
C478     C      0.720570000000     0.990180000000     0.122380000000    -0.0911975  
C479     C      0.778870000000     0.514600000000     0.149680000000    -0.00189149 
C480     C      0.735570000000     0.974680000000     0.151010000000     0.322324   
C481     C      0.015040000000     0.722940000000     0.376640000000    -0.0231774  
C482     C      0.979710000000     0.770350000000     0.379180000000    -0.101195   
C483     C      0.531580000000     0.737130000000     0.348470000000    -0.0058732  
C484     C      0.493980000000     0.782500000000     0.348750000000     0.323713   
C485     C      0.994330000000     0.718580000000     0.099350000000    -0.00741304 
C486     C      0.532700000000     0.763620000000     0.098820000000    -0.105361   
C487     C      0.977730000000     0.733310000000     0.127340000000    -0.00160994 
C488     C      0.517250000000     0.777030000000     0.127950000000     0.324618   
C489     C      0.640470000000     0.994890000000     0.283770000000    -0.00422842 
C490     C      0.640730000000     0.535490000000     0.240980000000    -0.0977669  
C491     C      0.613220000000     0.978170000000     0.268190000000    -0.00620019 
C492     C      0.614470000000     0.517670000000     0.224330000000     0.324245   
C493     C      0.863110000000     0.532440000000     0.249310000000    -0.0175686  
C494     C      0.862130000000     0.483630000000     0.282840000000    -0.103715   
C495     C      0.890810000000     0.519240000000     0.231380000000    -0.00334687 
C496     C      0.892870000000     0.973000000000     0.267780000000     0.323631   
C497     C      0.536440000000     0.862420000000     0.246510000000    -0.0145456  
C498     C      0.492020000000     0.862050000000     0.208260000000    -0.100766   
C499     C      0.021110000000     0.889470000000     0.264070000000    -0.00493006 
C500     C      0.978450000000     0.891640000000     0.223350000000     0.326194   
C501     C      0.973790000000     0.640990000000     0.260330000000    -0.0221111  
C502     C      0.518310000000     0.637860000000     0.221920000000    -0.106242   
C503     C      0.989030000000     0.614590000000     0.279700000000     0.00808073 
C504     C      0.533430000000     0.612360000000     0.241560000000     0.325115   
C505     C      0.505060000000     0.564070000000     0.756430000000     0.434315   
C506     C      0.001870000000     0.940020000000     0.745070000000     0.428086   
C507     C      0.564590000000     0.501080000000     0.748490000000     0.441983   
C508     C      0.940900000000     0.001360000000     0.752180000000     0.423991   
C509     C      0.499880000000     0.689220000000     0.740900000000     0.398244   
C510     C      0.509270000000     0.813130000000     0.733940000000     0.414586   
C511     C      0.507580000000     0.754800000000     0.799620000000     0.42776    
C512     C      0.501770000000     0.750070000000     0.676560000000     0.430635   
C513     C      0.813460000000     0.506960000000     0.762530000000     0.403873   
C514     C      0.689690000000     0.511670000000     0.759600000000     0.408303   
C515     C      0.753170000000     0.501750000000     0.699100000000     0.43448    
C516     C      0.749210000000     0.515220000000     0.822270000000     0.427482   
C517     C      0.742920000000     0.506800000000     0.572080000000     0.402961   
C518     C      0.736930000000     0.019760000000     0.949010000000     0.399829   
C519     C      0.732390000000     0.573880000000     0.517160000000     0.433152   
C520     C      0.747080000000     0.950370000000     0.004090000000     0.423561   
C521     C      0.508950000000     0.744520000000     0.550100000000     0.398604   
C522     C      0.002880000000     0.747930000000     0.926870000000     0.400692   
C523     C      0.568020000000     0.744670000000     0.485760000000     0.427258   
C524     C      0.944030000000     0.749420000000     0.991270000000     0.42299    
C525     C      0.750290000000     0.696080000000     0.501920000000     0.397742   
C526     C      0.758030000000     0.820730000000     0.504790000000     0.395277   
C527     C      0.691920000000     0.761650000000     0.502990000000     0.395313   
C528     C      0.815810000000     0.753220000000     0.502640000000     0.39663    
C529     C      0.867400000000     0.762520000000     0.526600000000    -0.0171686  
C530     C      0.861340000000     0.724370000000     0.982330000000    -0.102079   
C531     C      0.897030000000     0.775590000000     0.511420000000    -0.00577757 
C532     C      0.892700000000     0.735100000000     0.968800000000     0.322003   
C533     C      0.641530000000     0.742860000000     0.524340000000    -0.020075   
C534     C      0.642800000000     0.782430000000     0.980740000000    -0.104081   
C535     C      0.617580000000     0.723210000000     0.505990000000    -0.00500057 
C536     C      0.618190000000     0.763410000000     0.963160000000     0.324594   
C537     C      0.745160000000     0.869810000000     0.532060000000    -0.0178569  
C538     C      0.781490000000     0.870550000000     0.986030000000    -0.100232   
C539     C      0.728250000000     0.898420000000     0.519240000000    -0.00365678 
C540     C      0.769340000000     0.903710000000     0.977420000000     0.321129   
C541     C      0.728570000000     0.646540000000     0.980590000000    -0.0197216  
C542     C      0.768930000000     0.645850000000     0.523410000000    -0.107298   
C543     C      0.708390000000     0.623360000000     0.999580000000    -0.00195075 
C544     C      0.748430000000     0.623660000000     0.542200000000     0.328361   
C545     C      0.711970000000     0.008380000000     0.898620000000    -0.0276682  
C546     C      0.753270000000     0.549930000000     0.902510000000    -0.100227   
C547     C      0.728810000000     0.993820000000     0.870900000000     0.00574241 
C548     C      0.767540000000     0.538900000000     0.871510000000     0.320845   
C549     C      0.765460000000     0.528620000000     0.619800000000    -0.0207977  
C550     C      0.720570000000     0.990180000000     0.622380000000    -0.0912561  
C551     C      0.778870000000     0.514600000000     0.649680000000    -0.00189517 
C552     C      0.735570000000     0.974680000000     0.651010000000     0.322336   
C553     C      0.015040000000     0.722940000000     0.876640000000    -0.0231856  
C554     C      0.979710000000     0.770350000000     0.879180000000    -0.1012     
C555     C      0.531580000000     0.737130000000     0.848470000000    -0.00588164 
C556     C      0.493980000000     0.782500000000     0.848750000000     0.323709   
C557     C      0.994330000000     0.718580000000     0.599350000000    -0.0073926  
C558     C      0.532700000000     0.763620000000     0.598820000000    -0.105377   
C559     C      0.977730000000     0.733310000000     0.627340000000    -0.00156979 
C560     C      0.517250000000     0.777030000000     0.627950000000     0.324644   
C561     C      0.640470000000     0.994890000000     0.783770000000    -0.00425992 
C562     C      0.640730000000     0.535490000000     0.740980000000    -0.0977706  
C563     C      0.613220000000     0.978170000000     0.768190000000    -0.00619546 
C564     C      0.614470000000     0.517670000000     0.724330000000     0.324242   
C565     C      0.863110000000     0.532440000000     0.749310000000    -0.017573   
C566     C      0.862130000000     0.483630000000     0.782840000000    -0.103729   
C567     C      0.890810000000     0.519240000000     0.731380000000    -0.00334517 
C568     C      0.892870000000     0.973000000000     0.767780000000     0.323645   
C569     C      0.536440000000     0.862420000000     0.746510000000    -0.014586   
C570     C      0.492020000000     0.862050000000     0.708260000000    -0.100976   
C571     C      0.021110000000     0.889470000000     0.764070000000    -0.00492325 
C572     C      0.978450000000     0.891640000000     0.723340000000     0.326355   
C573     C      0.973790000000     0.640990000000     0.760330000000    -0.0220907  
C574     C      0.518310000000     0.637860000000     0.721920000000    -0.106252   
C575     C      0.989030000000     0.614590000000     0.779700000000     0.00808252 
C576     C      0.533430000000     0.612360000000     0.741560000000     0.325117   
Cu1      Cu     0.003570000000     0.498960000000     0.279200000000     0.867687   
Cu2      Cu     0.501970000000     0.005110000000     0.222030000000     0.88615    
Cu3      Cu     0.033040000000     0.249210000000     0.236960000000     0.866097   
Cu4      Cu     0.475980000000     0.253420000000     0.239180000000     0.86021    
Cu5      Cu     0.249910000000     0.480020000000     0.264140000000     0.871226   
Cu6      Cu     0.253080000000     0.037690000000     0.257200000000     0.867023   
Cu7      Cu     0.268440000000     0.016230000000     0.509420000000     0.868115   
Cu8      Cu     0.211380000000     0.508370000000     0.011380000000     0.853648   
Cu9      Cu     0.004900000000     0.217870000000     0.487870000000     0.853724   
Cu10     Cu     0.507110000000     0.275430000000     0.989190000000     0.863083   
Cu11     Cu     0.254100000000     0.257640000000     0.031500000000     0.849374   
Cu12     Cu     0.253800000000     0.259000000000     0.474480000000     0.842224   
Cu13     Cu     0.003570000000     0.498960000000     0.779200000000     0.8678     
Cu14     Cu     0.501970000000     0.005110000000     0.722030000000     0.886252   
Cu15     Cu     0.033040000000     0.249210000000     0.736960000000     0.866202   
Cu16     Cu     0.475980000000     0.253420000000     0.739170000000     0.860187   
Cu17     Cu     0.249910000000     0.480020000000     0.764140000000     0.871233   
Cu18     Cu     0.253080000000     0.037690000000     0.757200000000     0.867027   
Cu19     Cu     0.268440000000     0.016230000000     0.009420000000     0.866477   
Cu20     Cu     0.211380000000     0.508370000000     0.511380000000     0.855205   
Cu21     Cu     0.004900000000     0.217870000000     0.987870000000     0.855432   
Cu22     Cu     0.507110000000     0.275430000000     0.489190000000     0.861402   
Cu23     Cu     0.254100000000     0.257640000000     0.531500000000     0.851387   
Cu24     Cu     0.253800000000     0.259000000000     0.974480000000     0.843405   
Cu25     Cu     0.003570000000     0.998950000000     0.279200000000     0.880365   
Cu26     Cu     0.501970000000     0.505110000000     0.222030000000     0.896504   
Cu27     Cu     0.033040000000     0.749210000000     0.236960000000     0.86608    
Cu28     Cu     0.475980000000     0.753420000000     0.239180000000     0.86022    
Cu29     Cu     0.249910000000     0.980020000000     0.264140000000     0.874229   
Cu30     Cu     0.253080000000     0.537690000000     0.257200000000     0.87259    
Cu31     Cu     0.268440000000     0.516230000000     0.509420000000     0.872298   
Cu32     Cu     0.211380000000     0.008370000000     0.011380000000     0.848966   
Cu33     Cu     0.004900000000     0.717870000000     0.487870000000     0.853872   
Cu34     Cu     0.507110000000     0.775430000000     0.989190000000     0.863323   
Cu35     Cu     0.254100000000     0.757640000000     0.031500000000     0.849515   
Cu36     Cu     0.253800000000     0.759000000000     0.474480000000     0.842188   
Cu37     Cu     0.003570000000     0.998950000000     0.779200000000     0.88045    
Cu38     Cu     0.501970000000     0.505110000000     0.722030000000     0.896589   
Cu39     Cu     0.033040000000     0.749210000000     0.736960000000     0.866186   
Cu40     Cu     0.475980000000     0.753420000000     0.739170000000     0.860197   
Cu41     Cu     0.249910000000     0.980020000000     0.764140000000     0.87423    
Cu42     Cu     0.253080000000     0.537690000000     0.757200000000     0.872584   
Cu43     Cu     0.268440000000     0.516230000000     0.009420000000     0.870657   
Cu44     Cu     0.211380000000     0.008370000000     0.511380000000     0.85052    
Cu45     Cu     0.004900000000     0.717870000000     0.987870000000     0.855572   
Cu46     Cu     0.507110000000     0.775430000000     0.489190000000     0.861653   
Cu47     Cu     0.254100000000     0.757640000000     0.531500000000     0.851519   
Cu48     Cu     0.253800000000     0.759000000000     0.974480000000     0.843362   
Cu49     Cu     0.503570000000     0.498960000000     0.279200000000     0.873265   
Cu50     Cu     0.001970000000     0.005110000000     0.222030000000     0.875507   
Cu51     Cu     0.533040000000     0.249210000000     0.236960000000     0.872071   
Cu52     Cu     0.975980000000     0.253420000000     0.239180000000     0.865114   
Cu53     Cu     0.749920000000     0.480020000000     0.264140000000     0.871212   
Cu54     Cu     0.753080000000     0.037690000000     0.257200000000     0.867011   
Cu55     Cu     0.768440000000     0.016230000000     0.509420000000     0.868438   
Cu56     Cu     0.711380000000     0.508370000000     0.011380000000     0.853794   
Cu57     Cu     0.504900000000     0.217870000000     0.487870000000     0.859381   
Cu58     Cu     0.007110000000     0.275430000000     0.989190000000     0.85257    
Cu59     Cu     0.754100000000     0.257640000000     0.031500000000     0.849352   
Cu60     Cu     0.753800000000     0.259000000000     0.474480000000     0.842225   
Cu61     Cu     0.503570000000     0.498960000000     0.779200000000     0.873384   
Cu62     Cu     0.001970000000     0.005110000000     0.722030000000     0.875584   
Cu63     Cu     0.533040000000     0.249210000000     0.736960000000     0.872188   
Cu64     Cu     0.975980000000     0.253420000000     0.739170000000     0.865099   
Cu65     Cu     0.749920000000     0.480020000000     0.764140000000     0.871218   
Cu66     Cu     0.753080000000     0.037690000000     0.757200000000     0.867015   
Cu67     Cu     0.768440000000     0.016230000000     0.009420000000     0.866787   
Cu68     Cu     0.711380000000     0.508370000000     0.511380000000     0.855365   
Cu69     Cu     0.504900000000     0.217870000000     0.987870000000     0.861097   
Cu70     Cu     0.007110000000     0.275430000000     0.489190000000     0.850893   
Cu71     Cu     0.754100000000     0.257640000000     0.531500000000     0.851378   
Cu72     Cu     0.753800000000     0.259000000000     0.974480000000     0.843411   
Cu73     Cu     0.503570000000     0.998950000000     0.279200000000     0.885998   
Cu74     Cu     0.001970000000     0.505110000000     0.222030000000     0.885773   
Cu75     Cu     0.533040000000     0.749210000000     0.236960000000     0.872062   
Cu76     Cu     0.975980000000     0.753420000000     0.239180000000     0.865129   
Cu77     Cu     0.749920000000     0.980020000000     0.264140000000     0.874218   
Cu78     Cu     0.753080000000     0.537690000000     0.257200000000     0.872587   
Cu79     Cu     0.768440000000     0.516230000000     0.509420000000     0.872629   
Cu80     Cu     0.711380000000     0.008370000000     0.011380000000     0.849097   
Cu81     Cu     0.504900000000     0.717870000000     0.487870000000     0.859544   
Cu82     Cu     0.007110000000     0.775430000000     0.989190000000     0.852798   
Cu83     Cu     0.754100000000     0.757640000000     0.031500000000     0.849493   
Cu84     Cu     0.753800000000     0.759000000000     0.474480000000     0.842189   
Cu85     Cu     0.503570000000     0.998950000000     0.779200000000     0.886088   
Cu86     Cu     0.001970000000     0.505110000000     0.722030000000     0.885834   
Cu87     Cu     0.533040000000     0.749210000000     0.736960000000     0.872179   
Cu88     Cu     0.975980000000     0.753420000000     0.739170000000     0.865115   
Cu89     Cu     0.749920000000     0.980020000000     0.764140000000     0.874218   
Cu90     Cu     0.753080000000     0.537690000000     0.757200000000     0.872581   
Cu91     Cu     0.768440000000     0.516230000000     0.009420000000     0.870975   
Cu92     Cu     0.711380000000     0.008370000000     0.511380000000     0.850664   
Cu93     Cu     0.504900000000     0.717870000000     0.987870000000     0.861251   
Cu94     Cu     0.007110000000     0.775430000000     0.489190000000     0.851133   
Cu95     Cu     0.754100000000     0.757640000000     0.531500000000     0.85151    
Cu96     Cu     0.753800000000     0.759000000000     0.974480000000     0.843368   
F1       F      0.407800000000     0.209460000000     0.455740000000    -0.429177   
F2       F      0.099570000000     0.283360000000     0.445630000000    -0.432835   
F3       F      0.294380000000     0.422550000000     0.469070000000    -0.427257   
F4       F      0.266700000000     0.104580000000     0.061030000000    -0.437275   
F5       F      0.276310000000     0.064940000000     0.354190000000    -0.428945   
F6       F      0.212230000000     0.462520000000     0.169890000000    -0.431069   
F7       F      0.471150000000     0.297510000000     0.331350000000    -0.426745   
F8       F      0.039520000000     0.291850000000     0.146230000000    -0.432474   
F9       F      0.096090000000     0.039020000000     0.208200000000    -0.401743   
F10      F      0.411370000000     0.458390000000     0.289970000000    -0.422314   
F11      F      0.965900000000     0.410840000000     0.200460000000    -0.422386   
F12      F      0.050800000000     0.092380000000     0.222800000000    -0.406929   
F13      F      0.407800000000     0.209460000000     0.955750000000    -0.429025   
F14      F      0.099570000000     0.283360000000     0.945630000000    -0.432694   
F15      F      0.294380000000     0.422550000000     0.969070000000    -0.426842   
F16      F      0.266700000000     0.104580000000     0.561030000000    -0.437204   
F17      F      0.276310000000     0.064940000000     0.854190000000    -0.428893   
F18      F      0.212230000000     0.462520000000     0.669890000000    -0.431052   
F19      F      0.471150000000     0.297510000000     0.831350000000    -0.426718   
F20      F      0.039520000000     0.291850000000     0.646230000000    -0.432429   
F21      F      0.096090000000     0.039020000000     0.708200000000    -0.401707   
F22      F      0.411370000000     0.458390000000     0.789970000000    -0.42227    
F23      F      0.965900000000     0.410840000000     0.700460000000    -0.422405   
F24      F      0.050800000000     0.092380000000     0.722800000000    -0.406903   
F25      F      0.407800000000     0.709460000000     0.455740000000    -0.429056   
F26      F      0.099570000000     0.783360000000     0.445630000000    -0.432781   
F27      F      0.294380000000     0.922560000000     0.469070000000    -0.426384   
F28      F      0.266700000000     0.604580000000     0.061030000000    -0.437192   
F29      F      0.276310000000     0.564940000000     0.354190000000    -0.428714   
F30      F      0.212230000000     0.962520000000     0.169890000000    -0.429384   
F31      F      0.471150000000     0.797510000000     0.331350000000    -0.426664   
F32      F      0.039520000000     0.791850000000     0.146230000000    -0.432343   
F33      F      0.096090000000     0.539020000000     0.208200000000    -0.401865   
F34      F      0.411370000000     0.958390000000     0.289970000000    -0.421591   
F35      F      0.965900000000     0.910840000000     0.200460000000    -0.421643   
F36      F      0.050800000000     0.592380000000     0.222800000000    -0.406795   
F37      F      0.407800000000     0.709460000000     0.955750000000    -0.428905   
F38      F      0.099570000000     0.783360000000     0.945630000000    -0.432642   
F39      F      0.294380000000     0.922560000000     0.969070000000    -0.425975   
F40      F      0.266700000000     0.604580000000     0.561030000000    -0.43712    
F41      F      0.276310000000     0.564940000000     0.854190000000    -0.428663   
F42      F      0.212230000000     0.962520000000     0.669890000000    -0.429369   
F43      F      0.471150000000     0.797510000000     0.831350000000    -0.426638   
F44      F      0.039520000000     0.791850000000     0.646230000000    -0.432298   
F45      F      0.096090000000     0.539020000000     0.708200000000    -0.401828   
F46      F      0.411370000000     0.958390000000     0.789970000000    -0.42155    
F47      F      0.965900000000     0.910840000000     0.700460000000    -0.421663   
F48      F      0.050800000000     0.592380000000     0.722800000000    -0.40677    
F49      F      0.907800000000     0.209460000000     0.455740000000    -0.42835    
F50      F      0.599570000000     0.283360000000     0.445630000000    -0.432524   
F51      F      0.794380000000     0.422550000000     0.469070000000    -0.426998   
F52      F      0.766700000000     0.104580000000     0.061030000000    -0.437157   
F53      F      0.776320000000     0.064940000000     0.354190000000    -0.428767   
F54      F      0.712230000000     0.462520000000     0.169890000000    -0.431022   
F55      F      0.971150000000     0.297510000000     0.331350000000    -0.426563   
F56      F      0.539530000000     0.291850000000     0.146230000000    -0.432114   
F57      F      0.596090000000     0.039020000000     0.208200000000    -0.401581   
F58      F      0.911370000000     0.458390000000     0.289970000000    -0.421401   
F59      F      0.465900000000     0.410840000000     0.200460000000    -0.423925   
F60      F      0.550800000000     0.092380000000     0.222800000000    -0.406646   
F61      F      0.907800000000     0.209460000000     0.955750000000    -0.428198   
F62      F      0.599570000000     0.283360000000     0.945630000000    -0.432383   
F63      F      0.794380000000     0.422550000000     0.969070000000    -0.426581   
F64      F      0.766700000000     0.104580000000     0.561030000000    -0.437085   
F65      F      0.776320000000     0.064940000000     0.854190000000    -0.428715   
F66      F      0.712230000000     0.462520000000     0.669890000000    -0.431005   
F67      F      0.971150000000     0.297510000000     0.831350000000    -0.426535   
F68      F      0.539530000000     0.291850000000     0.646230000000    -0.432068   
F69      F      0.596090000000     0.039020000000     0.708200000000    -0.401544   
F70      F      0.911370000000     0.458390000000     0.789970000000    -0.421357   
F71      F      0.465900000000     0.410840000000     0.700460000000    -0.423948   
F72      F      0.550800000000     0.092380000000     0.722800000000    -0.40662    
F73      F      0.907800000000     0.709460000000     0.455740000000    -0.428227   
F74      F      0.599570000000     0.783360000000     0.445630000000    -0.43247    
F75      F      0.794380000000     0.922560000000     0.469070000000    -0.426125   
F76      F      0.766700000000     0.604580000000     0.061030000000    -0.437073   
F77      F      0.776320000000     0.564940000000     0.354190000000    -0.428536   
F78      F      0.712230000000     0.962520000000     0.169890000000    -0.429334   
F79      F      0.971150000000     0.797510000000     0.331350000000    -0.426483   
F80      F      0.539530000000     0.791850000000     0.146230000000    -0.431982   
F81      F      0.596090000000     0.539020000000     0.208200000000    -0.401702   
F82      F      0.911370000000     0.958390000000     0.289970000000    -0.420681   
F83      F      0.465900000000     0.910840000000     0.200460000000    -0.423179   
F84      F      0.550800000000     0.592380000000     0.222800000000    -0.406511   
F85      F      0.907800000000     0.709460000000     0.955750000000    -0.428076   
F86      F      0.599570000000     0.783360000000     0.945630000000    -0.432331   
F87      F      0.794380000000     0.922560000000     0.969070000000    -0.425715   
F88      F      0.766700000000     0.604580000000     0.561030000000    -0.437001   
F89      F      0.776320000000     0.564940000000     0.854190000000    -0.428484   
F90      F      0.712230000000     0.962520000000     0.669890000000    -0.429319   
F91      F      0.971150000000     0.797510000000     0.831350000000    -0.426456   
F92      F      0.539530000000     0.791850000000     0.646230000000    -0.431936   
F93      F      0.596090000000     0.539020000000     0.708200000000    -0.401664   
F94      F      0.911370000000     0.958390000000     0.789970000000    -0.420639   
F95      F      0.465900000000     0.910840000000     0.700460000000    -0.423204   
F96      F      0.550800000000     0.592380000000     0.722800000000    -0.406485   
H1       H      0.365580000000     0.202950000000     0.996570000000     0.0933872  
H2       H      0.374130000000     0.244120000000     0.043730000000     0.0506953  
H3       H      0.412880000000     0.284370000000     0.030030000000     0.0485747  
H4       H      0.345490000000     0.217450000000     0.462980000000     0.0924729  
H5       H      0.387680000000     0.252080000000     0.449760000000     0.00257006 
H6       H      0.355290000000     0.281820000000     0.039260000000     0.0499475  
H7       H      0.390550000000     0.295790000000     0.496290000000     0.0506456  
H8       H      0.130550000000     0.301010000000     0.494260000000     0.0914737  
H9       H      0.128660000000     0.258560000000     0.040590000000     0.0517843  
H10      H      0.102070000000     0.210680000000     0.022670000000     0.0462197  
H11      H      0.158500000000     0.294400000000     0.463850000000     0.0917291  
H12      H      0.130730000000     0.247540000000     0.446800000000    -0.000816734
H13      H      0.156480000000     0.226790000000     0.038330000000     0.0500159  
H14      H      0.130410000000     0.205400000000     0.991990000000     0.0453819  
H15      H      0.303860000000     0.373390000000     0.498870000000     0.095284   
H16      H      0.263420000000     0.377690000000     0.048750000000     0.0553388  
H17      H      0.217180000000     0.411180000000     0.039010000000     0.0485395  
H18      H      0.287010000000     0.357380000000     0.464350000000     0.0884252  
H19      H      0.254170000000     0.401180000000     0.456550000000    -0.00116966 
H20      H      0.228000000000     0.355000000000     0.044850000000     0.0525413  
H21      H      0.209500000000     0.390540000000     0.003110000000     0.0473156  
H22      H      0.285750000000     0.131470000000     0.009740000000     0.0929977  
H23      H      0.242980000000     0.132800000000     0.463890000000     0.0517516  
H24      H      0.195310000000     0.107760000000     0.483380000000     0.0442767  
H25      H      0.282720000000     0.161020000000     0.039410000000     0.0929207  
H26      H      0.233230000000     0.138200000000     0.057490000000     0.000336547
H27      H      0.213060000000     0.162500000000     0.467110000000     0.0492078  
H28      H      0.191270000000     0.137160000000     0.513450000000     0.0442739  
H29      H      0.237240000000     0.069850000000     0.397430000000     0.0903298  
H30      H      0.194260000000     0.025380000000     0.389920000000     0.0512236  
H31      H      0.211210000000     0.482100000000     0.355740000000     0.0453393  
H32      H      0.272050000000     0.059190000000     0.417870000000     0.0896486  
H33      H      0.289070000000     0.025350000000     0.377000000000     0.00494066 
H34      H      0.199770000000     0.489480000000     0.411780000000     0.0508052  
H35      H      0.245330000000     0.475580000000     0.379480000000     0.0555639  
H36      H      0.202960000000     0.507640000000     0.130360000000     0.0985185  
H37      H      0.251780000000     0.049890000000     0.126170000000     0.0659412  
H38      H      0.290420000000     0.033430000000     0.163510000000     0.0501044  
H39      H      0.208320000000     0.471910000000     0.108400000000     0.08986    
H40      H      0.250800000000     0.455100000000     0.143030000000     0.00116776 
H41      H      0.284970000000     0.036520000000     0.104590000000     0.0680353  
H42      H      0.297220000000     0.997360000000     0.143020000000     0.052141   
H43      H      0.457730000000     0.257720000000     0.373410000000     0.101011   
H44      H      0.496470000000     0.206690000000     0.368340000000     0.0554244  
H45      H      0.041010000000     0.217720000000     0.333840000000     0.0475013  
H46      H      0.473300000000     0.290650000000     0.394210000000     0.0973073  
H47      H      0.011970000000     0.300290000000     0.354960000000    -0.00109345 
H48      H      0.032280000000     0.209110000000     0.390360000000     0.0561479  
H49      H      0.051460000000     0.251750000000     0.356730000000     0.0554612  
H50      H      0.053090000000     0.249260000000     0.106230000000     0.0913473  
H51      H      0.011540000000     0.201040000000     0.107970000000     0.0470596  
H52      H      0.467300000000     0.214350000000     0.141870000000     0.0455331  
H53      H      0.041740000000     0.283190000000     0.084220000000     0.0920686  
H54      H      0.500120000000     0.295110000000     0.120330000000     0.000684248
H55      H      0.476760000000     0.206090000000     0.084810000000     0.0518818  
H56      H      0.458610000000     0.248730000000     0.118740000000     0.0456629  
H57      H      0.130210000000     0.054140000000     0.255800000000     0.0998743  
H58      H      0.130810000000     0.011160000000     0.301620000000     0.0443053  
H59      H      0.097840000000     0.467590000000     0.286270000000     0.0462614  
H60      H      0.156080000000     0.046850000000     0.223350000000     0.097508   
H61      H      0.125090000000     0.501010000000     0.207410000000     0.0128402  
H62      H      0.155380000000     0.477450000000     0.296090000000     0.0487029  
H63      H      0.122820000000     0.458600000000     0.253940000000     0.0512168  
H64      H      0.367760000000     0.995250000000     0.305350000000     0.101526   
H65      H      0.371880000000     0.048110000000     0.268110000000     0.0562547  
H66      H      0.404800000000     0.039120000000     0.221900000000     0.0477375  
H67      H      0.347610000000     0.462660000000     0.288290000000     0.0952783  
H68      H      0.387020000000     0.455230000000     0.249710000000     0.00959115 
H69      H      0.348710000000     0.046740000000     0.233040000000     0.0513813  
H70      H      0.382040000000     0.504880000000     0.211580000000     0.0513428  
H71      H      0.006660000000     0.369470000000     0.188170000000     0.0987801  
H72      H      0.053100000000     0.372250000000     0.229180000000     0.0587391  
H73      H      0.539700000000     0.403870000000     0.275270000000     0.048769   
H74      H      0.972760000000     0.347260000000     0.198890000000     0.0964553  
H75      H      0.459090000000     0.384210000000     0.238950000000     0.0149182  
H76      H      0.049640000000     0.347580000000     0.263300000000     0.0562914  
H77      H      0.505870000000     0.379670000000     0.282670000000     0.0641345  
H78      H      0.003990000000     0.126300000000     0.203590000000     0.0922144  
H79      H      0.456270000000     0.130230000000     0.244480000000     0.0500822  
H80      H      0.470510000000     0.100100000000     0.290860000000     0.0462898  
H81      H      0.036710000000     0.151840000000     0.209990000000     0.0970603  
H82      H      0.049690000000     0.123980000000     0.258170000000     0.00264522 
H83      H      0.461410000000     0.157410000000     0.276270000000     0.0524762  
H84      H      0.503450000000     0.125560000000     0.298290000000     0.0462768  
H85      H      0.365580000000     0.202950000000     0.496570000000     0.0929513  
H86      H      0.374130000000     0.244120000000     0.543730000000     0.0511482  
H87      H      0.412880000000     0.284370000000     0.530030000000     0.0482989  
H88      H      0.345490000000     0.217450000000     0.962980000000     0.0924643  
H89      H      0.387680000000     0.252080000000     0.949760000000     0.00271337 
H90      H      0.355290000000     0.281820000000     0.539260000000     0.0503446  
H91      H      0.390550000000     0.295790000000     0.996290000000     0.0526461  
H92      H      0.130550000000     0.301010000000     0.994260000000     0.0918608  
H93      H      0.128660000000     0.258560000000     0.540590000000     0.0522334  
H94      H      0.102070000000     0.210680000000     0.522670000000     0.0459472  
H95      H      0.158500000000     0.294400000000     0.963850000000     0.0917456  
H96      H      0.130730000000     0.247540000000     0.946800000000    -0.00060814 
H97      H      0.156480000000     0.226790000000     0.538330000000     0.0503413  
H98      H      0.130410000000     0.205400000000     0.491990000000     0.0433545  
H99      H      0.303860000000     0.373390000000     0.998870000000     0.095767   
H100     H      0.263420000000     0.377690000000     0.548750000000     0.0555089  
H101     H      0.217180000000     0.411180000000     0.539010000000     0.04862    
H102     H      0.287010000000     0.357380000000     0.964350000000     0.0884383  
H103     H      0.254170000000     0.401180000000     0.956550000000    -0.0010258  
H104     H      0.228000000000     0.355000000000     0.544850000000     0.0525925  
H105     H      0.209500000000     0.390540000000     0.503110000000     0.0478002  
H106     H      0.285750000000     0.131470000000     0.509740000000     0.093429   
H107     H      0.242980000000     0.132800000000     0.963890000000     0.0520882  
H108     H      0.195310000000     0.107760000000     0.983380000000     0.0440774  
H109     H      0.282720000000     0.161020000000     0.539410000000     0.0929562  
H110     H      0.233230000000     0.138200000000     0.557490000000     0.00043204 
H111     H      0.213060000000     0.162500000000     0.967110000000     0.0495244  
H112     H      0.191270000000     0.137160000000     0.013450000000     0.0424152  
H113     H      0.237240000000     0.069850000000     0.897430000000     0.0904264  
H114     H      0.194260000000     0.025380000000     0.889920000000     0.0513239  
H115     H      0.211210000000     0.482100000000     0.855740000000     0.0453844  
H116     H      0.272050000000     0.059190000000     0.917870000000     0.0898526  
H117     H      0.289070000000     0.025350000000     0.877000000000     0.00503704 
H118     H      0.199770000000     0.489480000000     0.911780000000     0.0510123  
H119     H      0.245330000000     0.475580000000     0.879480000000     0.055654   
H120     H      0.202960000000     0.507640000000     0.630360000000     0.0985647  
H121     H      0.251780000000     0.049890000000     0.626170000000     0.0659564  
H122     H      0.290420000000     0.033430000000     0.663510000000     0.050125   
H123     H      0.208320000000     0.471910000000     0.608410000000     0.0899388  
H124     H      0.250800000000     0.455100000000     0.643030000000     0.00119552 
H125     H      0.284970000000     0.036520000000     0.604590000000     0.0680947  
H126     H      0.297220000000     0.997360000000     0.643020000000     0.0521887  
H127     H      0.457730000000     0.257720000000     0.873410000000     0.101031   
H128     H      0.496470000000     0.206690000000     0.868340000000     0.0554644  
H129     H      0.041010000000     0.217720000000     0.833840000000     0.047513   
H130     H      0.473300000000     0.290650000000     0.894210000000     0.0973696  
H131     H      0.011970000000     0.300290000000     0.854960000000    -0.00105644 
H132     H      0.032280000000     0.209110000000     0.890360000000     0.0562053  
H133     H      0.051460000000     0.251750000000     0.856730000000     0.0554794  
H134     H      0.053090000000     0.249260000000     0.606230000000     0.0914329  
H135     H      0.011540000000     0.201040000000     0.607970000000     0.0471437  
H136     H      0.467300000000     0.214350000000     0.641870000000     0.0455698  
H137     H      0.041740000000     0.283190000000     0.584220000000     0.0922531  
H138     H      0.500120000000     0.295110000000     0.620330000000     0.000780354
H139     H      0.476760000000     0.206090000000     0.584810000000     0.0520844  
H140     H      0.458610000000     0.248730000000     0.618740000000     0.0457464  
H141     H      0.130210000000     0.054140000000     0.755800000000     0.0998878  
H142     H      0.130810000000     0.011160000000     0.801620000000     0.0443613  
H143     H      0.097840000000     0.467590000000     0.786270000000     0.0462969  
H144     H      0.156080000000     0.046850000000     0.723350000000     0.0975191  
H145     H      0.125090000000     0.501010000000     0.707410000000     0.0128661  
H146     H      0.155380000000     0.477450000000     0.796090000000     0.0487338  
H147     H      0.122820000000     0.458600000000     0.753940000000     0.0512298  
H148     H      0.367760000000     0.995250000000     0.805350000000     0.101575   
H149     H      0.371880000000     0.048110000000     0.768110000000     0.0562778  
H150     H      0.404800000000     0.039120000000     0.721900000000     0.0477607  
H151     H      0.347610000000     0.462660000000     0.788290000000     0.0953062  
H152     H      0.387020000000     0.455230000000     0.749710000000     0.00960279 
H153     H      0.348710000000     0.046740000000     0.733040000000     0.0513958  
H154     H      0.382040000000     0.504880000000     0.711580000000     0.0513751  
H155     H      0.006660000000     0.369470000000     0.688180000000     0.0988736  
H156     H      0.053100000000     0.372250000000     0.729190000000     0.0587637  
H157     H      0.539700000000     0.403870000000     0.775270000000     0.0487918  
H158     H      0.972760000000     0.347260000000     0.698890000000     0.0965289  
H159     H      0.459090000000     0.384210000000     0.738950000000     0.014934   
H160     H      0.049640000000     0.347580000000     0.763300000000     0.0563126  
H161     H      0.505870000000     0.379670000000     0.782670000000     0.0641608  
H162     H      0.003990000000     0.126300000000     0.703590000000     0.0922504  
H163     H      0.456270000000     0.130230000000     0.744470000000     0.0500912  
H164     H      0.470510000000     0.100100000000     0.790860000000     0.0463306  
H165     H      0.036710000000     0.151840000000     0.709990000000     0.0970841  
H166     H      0.049690000000     0.123980000000     0.758170000000     0.00265544 
H167     H      0.461410000000     0.157410000000     0.776270000000     0.0524868  
H168     H      0.503450000000     0.125560000000     0.798290000000     0.0463151  
H169     H      0.365580000000     0.702950000000     0.996570000000     0.0934738  
H170     H      0.374130000000     0.744130000000     0.043730000000     0.0507484  
H171     H      0.412880000000     0.784370000000     0.030030000000     0.0486964  
H172     H      0.345490000000     0.717450000000     0.462980000000     0.0925302  
H173     H      0.387680000000     0.752080000000     0.449760000000     0.00261741 
H174     H      0.355290000000     0.781820000000     0.039260000000     0.0500432  
H175     H      0.390550000000     0.795790000000     0.496290000000     0.0507905  
H176     H      0.130550000000     0.801000000000     0.494260000000     0.0916838  
H177     H      0.128660000000     0.758560000000     0.040590000000     0.0518442  
H178     H      0.102070000000     0.710680000000     0.022670000000     0.0462754  
H179     H      0.158500000000     0.794400000000     0.463850000000     0.0918616  
H180     H      0.130730000000     0.747540000000     0.446800000000    -0.000763542
H181     H      0.156480000000     0.726790000000     0.038330000000     0.050049   
H182     H      0.130410000000     0.705400000000     0.991990000000     0.0454302  
H183     H      0.303860000000     0.873390000000     0.498870000000     0.0955328  
H184     H      0.263420000000     0.877690000000     0.048750000000     0.0556172  
H185     H      0.217180000000     0.911180000000     0.039010000000     0.0490883  
H186     H      0.287010000000     0.857380000000     0.464350000000     0.0885405  
H187     H      0.254170000000     0.901180000000     0.456550000000    -0.000806197
H188     H      0.228000000000     0.855000000000     0.044850000000     0.0526708  
H189     H      0.209500000000     0.890540000000     0.003110000000     0.0476195  
H190     H      0.285750000000     0.631470000000     0.009740000000     0.0931128  
H191     H      0.242980000000     0.632800000000     0.463890000000     0.0517981  
H192     H      0.195310000000     0.607750000000     0.483380000000     0.0444162  
H193     H      0.282720000000     0.661020000000     0.039410000000     0.0929725  
H194     H      0.233230000000     0.638200000000     0.057490000000     0.000358053
H195     H      0.213060000000     0.662500000000     0.467110000000     0.0492478  
H196     H      0.191270000000     0.637160000000     0.513450000000     0.0443566  
H197     H      0.237240000000     0.569850000000     0.397430000000     0.0902134  
H198     H      0.194260000000     0.525380000000     0.389920000000     0.0496871  
H199     H      0.211210000000     0.982100000000     0.355740000000     0.0443316  
H200     H      0.272050000000     0.559190000000     0.417870000000     0.0897423  
H201     H      0.289070000000     0.525350000000     0.377000000000     0.00615467 
H202     H      0.199770000000     0.989480000000     0.411780000000     0.0568816  
H203     H      0.245330000000     0.975580000000     0.379480000000     0.0546544  
H204     H      0.202960000000     0.007640000000     0.130360000000     0.0933803  
H205     H      0.251780000000     0.549890000000     0.126170000000     0.0667309  
H206     H      0.290420000000     0.533430000000     0.163510000000     0.0483265  
H207     H      0.208320000000     0.971910000000     0.108400000000     0.0891702  
H208     H      0.250800000000     0.955100000000     0.143030000000     0.00231837 
H209     H      0.284970000000     0.536530000000     0.104590000000     0.0692335  
H210     H      0.297220000000     0.497360000000     0.143020000000     0.0461802  
H211     H      0.457730000000     0.757720000000     0.373410000000     0.101056   
H212     H      0.496470000000     0.706690000000     0.368340000000     0.0555232  
H213     H      0.041010000000     0.717720000000     0.333840000000     0.0475421  
H214     H      0.473300000000     0.790650000000     0.394210000000     0.0974193  
H215     H      0.011970000000     0.800290000000     0.354960000000    -0.00100056 
H216     H      0.032280000000     0.709110000000     0.390360000000     0.0562483  
H217     H      0.051460000000     0.751750000000     0.356730000000     0.0554971  
H218     H      0.053090000000     0.749260000000     0.106230000000     0.0913671  
H219     H      0.011540000000     0.701040000000     0.107970000000     0.0470904  
H220     H      0.467300000000     0.714350000000     0.141870000000     0.0455884  
H221     H      0.041740000000     0.783200000000     0.084220000000     0.0921617  
H222     H      0.500120000000     0.795110000000     0.120330000000     0.000835909
H223     H      0.476760000000     0.706090000000     0.084810000000     0.0519339  
H224     H      0.458610000000     0.748730000000     0.118740000000     0.0457266  
H225     H      0.130210000000     0.554140000000     0.255800000000     0.10036    
H226     H      0.130810000000     0.511150000000     0.301620000000     0.0496413  
H227     H      0.097840000000     0.967600000000     0.286270000000     0.0481078  
H228     H      0.156080000000     0.546850000000     0.223350000000     0.0977842  
H229     H      0.125090000000     0.001010000000     0.207410000000     0.0120736  
H230     H      0.155380000000     0.977450000000     0.296090000000     0.0475684  
H231     H      0.122820000000     0.958600000000     0.253940000000     0.0525878  
H232     H      0.367760000000     0.495250000000     0.305350000000     0.100616   
H233     H      0.371880000000     0.548110000000     0.268110000000     0.0572036  
H234     H      0.404800000000     0.539120000000     0.221900000000     0.0471221  
H235     H      0.347610000000     0.962660000000     0.288290000000     0.0951507  
H236     H      0.387020000000     0.955230000000     0.249710000000     0.0107041  
H237     H      0.348710000000     0.546740000000     0.233040000000     0.051705   
H238     H      0.382040000000     0.004880000000     0.211580000000     0.0508197  
H239     H      0.006660000000     0.869470000000     0.188170000000     0.0991029  
H240     H      0.053100000000     0.872250000000     0.229180000000     0.0590245  
H241     H      0.539700000000     0.903870000000     0.275270000000     0.0491135  
H242     H      0.972760000000     0.847260000000     0.198890000000     0.0965945  
H243     H      0.459090000000     0.884210000000     0.238950000000     0.015073   
H244     H      0.049640000000     0.847580000000     0.263300000000     0.0563836  
H245     H      0.505870000000     0.879670000000     0.282670000000     0.0642437  
H246     H      0.003990000000     0.626300000000     0.203590000000     0.0923139  
H247     H      0.456270000000     0.630230000000     0.244480000000     0.0501823  
H248     H      0.470510000000     0.600100000000     0.290860000000     0.0467094  
H249     H      0.036710000000     0.651840000000     0.209990000000     0.0971038  
H250     H      0.049690000000     0.623980000000     0.258170000000     0.00273024 
H251     H      0.461410000000     0.657410000000     0.276270000000     0.0525455  
H252     H      0.503450000000     0.625560000000     0.298290000000     0.0464982  
H253     H      0.365580000000     0.702950000000     0.496570000000     0.0930405  
H254     H      0.374130000000     0.744130000000     0.543730000000     0.0511994  
H255     H      0.412880000000     0.784370000000     0.530030000000     0.0484222  
H256     H      0.345490000000     0.717450000000     0.962980000000     0.0925216  
H257     H      0.387680000000     0.752080000000     0.949760000000     0.00275965 
H258     H      0.355290000000     0.781820000000     0.539260000000     0.0504383  
H259     H      0.390550000000     0.795790000000     0.996290000000     0.0527791  
H260     H      0.130550000000     0.801000000000     0.994260000000     0.0920671  
H261     H      0.128660000000     0.758560000000     0.540590000000     0.0522912  
H262     H      0.102070000000     0.710680000000     0.522670000000     0.0460045  
H263     H      0.158500000000     0.794400000000     0.963850000000     0.0918773  
H264     H      0.130730000000     0.747540000000     0.946800000000    -0.000556014
H265     H      0.156480000000     0.726790000000     0.538330000000     0.0503733  
H266     H      0.130410000000     0.705400000000     0.491990000000     0.0434123  
H267     H      0.303860000000     0.873390000000     0.998870000000     0.0960109  
H268     H      0.263420000000     0.877690000000     0.548750000000     0.055786   
H269     H      0.217180000000     0.911180000000     0.539010000000     0.0491687  
H270     H      0.287010000000     0.857380000000     0.964350000000     0.0885531  
H271     H      0.254170000000     0.901180000000     0.956550000000    -0.000664497
H272     H      0.228000000000     0.855000000000     0.544850000000     0.0527218  
H273     H      0.209500000000     0.890540000000     0.503110000000     0.0481022  
H274     H      0.285750000000     0.631470000000     0.509740000000     0.0935437  
H275     H      0.242980000000     0.632800000000     0.963890000000     0.0521334  
H276     H      0.195310000000     0.607750000000     0.983380000000     0.0442179  
H277     H      0.282720000000     0.661020000000     0.539410000000     0.0930079  
H278     H      0.233230000000     0.638200000000     0.557490000000     0.000453229
H279     H      0.213060000000     0.662500000000     0.967110000000     0.049563   
H280     H      0.191270000000     0.637160000000     0.013450000000     0.0425042  
H281     H      0.237240000000     0.569850000000     0.897430000000     0.09031    
H282     H      0.194260000000     0.525380000000     0.889920000000     0.0497933  
H283     H      0.211210000000     0.982100000000     0.855740000000     0.0443806  
H284     H      0.272050000000     0.559190000000     0.917870000000     0.0899453  
H285     H      0.289070000000     0.525350000000     0.877000000000     0.00624741 
H286     H      0.199770000000     0.989480000000     0.911780000000     0.0570642  
H287     H      0.245330000000     0.975580000000     0.879480000000     0.0547469  
H288     H      0.202960000000     0.007640000000     0.630360000000     0.0934283  
H289     H      0.251780000000     0.549890000000     0.626170000000     0.0667456  
H290     H      0.290420000000     0.533430000000     0.663510000000     0.0483485  
H291     H      0.208320000000     0.971910000000     0.608410000000     0.0892478  
H292     H      0.250800000000     0.955100000000     0.643030000000     0.00234562 
H293     H      0.284970000000     0.536530000000     0.604590000000     0.0692924  
H294     H      0.297220000000     0.497360000000     0.643020000000     0.0462325  
H295     H      0.457730000000     0.757720000000     0.873410000000     0.101076   
H296     H      0.496470000000     0.706690000000     0.868340000000     0.0555628  
H297     H      0.041010000000     0.717720000000     0.833840000000     0.0475536  
H298     H      0.473300000000     0.790650000000     0.894210000000     0.0974809  
H299     H      0.011970000000     0.800290000000     0.854960000000    -0.000964162
H300     H      0.032280000000     0.709110000000     0.890360000000     0.0563052  
H301     H      0.051460000000     0.751750000000     0.856730000000     0.055515   
H302     H      0.053090000000     0.749260000000     0.606230000000     0.0914524  
H303     H      0.011540000000     0.701040000000     0.607970000000     0.0471744  
H304     H      0.467300000000     0.714350000000     0.641870000000     0.0456251  
H305     H      0.041740000000     0.783200000000     0.584220000000     0.0923454  
H306     H      0.500120000000     0.795110000000     0.620330000000     0.000931521
H307     H      0.476760000000     0.706090000000     0.584810000000     0.052136   
H308     H      0.458610000000     0.748730000000     0.618740000000     0.0458098  
H309     H      0.130210000000     0.554140000000     0.755800000000     0.100372   
H310     H      0.130810000000     0.511150000000     0.801620000000     0.0496854  
H311     H      0.097840000000     0.967600000000     0.786270000000     0.0481388  
H312     H      0.156080000000     0.546850000000     0.723350000000     0.097795   
H313     H      0.125090000000     0.001010000000     0.707410000000     0.0120997  
H314     H      0.155380000000     0.977450000000     0.796090000000     0.0476012  
H315     H      0.122820000000     0.958600000000     0.753940000000     0.0525984  
H316     H      0.367760000000     0.495250000000     0.805350000000     0.100669   
H317     H      0.371880000000     0.548110000000     0.768110000000     0.0572246  
H318     H      0.404800000000     0.539120000000     0.721900000000     0.0471468  
H319     H      0.347610000000     0.962660000000     0.788290000000     0.0951782  
H320     H      0.387020000000     0.955230000000     0.749710000000     0.0107141  
H321     H      0.348710000000     0.546740000000     0.733040000000     0.0517191  
H322     H      0.382040000000     0.004880000000     0.711580000000     0.0508516  
H323     H      0.006660000000     0.869470000000     0.688180000000     0.099196   
H324     H      0.053100000000     0.872250000000     0.729190000000     0.0590487  
H325     H      0.539700000000     0.903870000000     0.775270000000     0.0491353  
H326     H      0.972760000000     0.847260000000     0.698890000000     0.096668   
H327     H      0.459090000000     0.884210000000     0.738950000000     0.0150885  
H328     H      0.049640000000     0.847580000000     0.763300000000     0.0564045  
H329     H      0.505870000000     0.879670000000     0.782670000000     0.0642695  
H330     H      0.003990000000     0.626300000000     0.703590000000     0.09235    
H331     H      0.456270000000     0.630230000000     0.744470000000     0.0501911  
H332     H      0.470510000000     0.600100000000     0.790860000000     0.0467492  
H333     H      0.036710000000     0.651840000000     0.709990000000     0.0971276  
H334     H      0.049690000000     0.623980000000     0.758170000000     0.00274019 
H335     H      0.461410000000     0.657410000000     0.776270000000     0.052556   
H336     H      0.503450000000     0.625560000000     0.798290000000     0.0465357  
H337     H      0.865580000000     0.202950000000     0.996570000000     0.0937048  
H338     H      0.874130000000     0.244120000000     0.043730000000     0.0510076  
H339     H      0.912880000000     0.284370000000     0.030030000000     0.0493933  
H340     H      0.845490000000     0.217450000000     0.462980000000     0.0926121  
H341     H      0.887690000000     0.252080000000     0.449760000000     0.00285759 
H342     H      0.855290000000     0.281820000000     0.039260000000     0.050145   
H343     H      0.890550000000     0.295790000000     0.496290000000     0.0510726  
H344     H      0.630550000000     0.301010000000     0.494260000000     0.0916188  
H345     H      0.628660000000     0.258560000000     0.040590000000     0.0518195  
H346     H      0.602070000000     0.210680000000     0.022670000000     0.0463429  
H347     H      0.658500000000     0.294400000000     0.463850000000     0.0917936  
H348     H      0.630740000000     0.247540000000     0.446800000000    -0.000750973
H349     H      0.656480000000     0.226790000000     0.038330000000     0.0500391  
H350     H      0.630410000000     0.205400000000     0.991990000000     0.0454933  
H351     H      0.803860000000     0.373390000000     0.498870000000     0.0955098  
H352     H      0.763420000000     0.377690000000     0.048750000000     0.0554325  
H353     H      0.717180000000     0.411180000000     0.039010000000     0.0486134  
H354     H      0.787010000000     0.357380000000     0.464350000000     0.0885437  
H355     H      0.754170000000     0.401180000000     0.456550000000    -0.00112355 
H356     H      0.728000000000     0.355000000000     0.044850000000     0.0525878  
H357     H      0.709500000000     0.390540000000     0.003110000000     0.0473912  
H358     H      0.785750000000     0.131470000000     0.009740000000     0.0931582  
H359     H      0.742980000000     0.132800000000     0.463890000000     0.0518007  
H360     H      0.695320000000     0.107760000000     0.483380000000     0.0443863  
H361     H      0.782720000000     0.161020000000     0.039410000000     0.0930356  
H362     H      0.733230000000     0.138200000000     0.057490000000     0.000359132
H363     H      0.713060000000     0.162500000000     0.467110000000     0.0492372  
H364     H      0.691270000000     0.137160000000     0.513450000000     0.0443593  
H365     H      0.737240000000     0.069850000000     0.397430000000     0.0903608  
H366     H      0.694260000000     0.025380000000     0.389920000000     0.051337   
H367     H      0.711210000000     0.482100000000     0.355740000000     0.0453837  
H368     H      0.772050000000     0.059190000000     0.417870000000     0.0897875  
H369     H      0.789070000000     0.025350000000     0.377000000000     0.00523    
H370     H      0.699780000000     0.489480000000     0.411780000000     0.0509298  
H371     H      0.745330000000     0.475580000000     0.379480000000     0.055624   
H372     H      0.702960000000     0.507640000000     0.130360000000     0.0985894  
H373     H      0.751780000000     0.049890000000     0.126170000000     0.0659771  
H374     H      0.790420000000     0.033430000000     0.163510000000     0.0502258  
H375     H      0.708320000000     0.471910000000     0.108400000000     0.0899453  
H376     H      0.750800000000     0.455100000000     0.143030000000     0.00123157 
H377     H      0.784970000000     0.036520000000     0.104590000000     0.0681975  
H378     H      0.797220000000     0.997360000000     0.143020000000     0.0523349  
H379     H      0.957730000000     0.257720000000     0.373410000000     0.10162    
H380     H      0.996470000000     0.206690000000     0.368340000000     0.0619451  
H381     H      0.541010000000     0.217720000000     0.333840000000     0.0486221  
H382     H      0.973300000000     0.290650000000     0.394210000000     0.0985206  
H383     H      0.511970000000     0.300290000000     0.354960000000     0.00486352 
H384     H      0.532280000000     0.209110000000     0.390360000000     0.0548736  
H385     H      0.551460000000     0.251750000000     0.356730000000     0.0560615  
H386     H      0.553090000000     0.249260000000     0.106230000000     0.0915172  
H387     H      0.511540000000     0.201040000000     0.107970000000     0.0531443  
H388     H      0.967300000000     0.214350000000     0.141870000000     0.0467555  
H389     H      0.541740000000     0.283190000000     0.084220000000     0.0923459  
H390     H      0.000120000000     0.295110000000     0.120330000000    -0.000980137
H391     H      0.976750000000     0.206090000000     0.084810000000     0.0513396  
H392     H      0.958610000000     0.248730000000     0.118740000000     0.0467435  
H393     H      0.630210000000     0.054140000000     0.255800000000     0.0999147  
H394     H      0.630810000000     0.011160000000     0.301620000000     0.0444205  
H395     H      0.597830000000     0.467590000000     0.286270000000     0.0464255  
H396     H      0.656080000000     0.046850000000     0.223350000000     0.0975389  
H397     H      0.625090000000     0.501010000000     0.207410000000     0.0129676  
H398     H      0.655380000000     0.477450000000     0.296090000000     0.0487669  
H399     H      0.622820000000     0.458600000000     0.253940000000     0.0512848  
H400     H      0.867760000000     0.995250000000     0.305350000000     0.101873   
H401     H      0.871880000000     0.048110000000     0.268110000000     0.0565834  
H402     H      0.904800000000     0.039120000000     0.221900000000     0.0484205  
H403     H      0.847610000000     0.462660000000     0.288290000000     0.0954377  
H404     H      0.887020000000     0.455230000000     0.249710000000     0.00987409 
H405     H      0.848710000000     0.046740000000     0.233040000000     0.0515361  
H406     H      0.882040000000     0.504880000000     0.211580000000     0.0516807  
H407     H      0.506660000000     0.369470000000     0.188170000000     0.105042   
H408     H      0.553100000000     0.372250000000     0.229180000000     0.0590228  
H409     H      0.039700000000     0.403870000000     0.275270000000     0.0486952  
H410     H      0.472760000000     0.347260000000     0.198890000000     0.097432   
H411     H      0.959090000000     0.384210000000     0.238950000000     0.0158799  
H412     H      0.549640000000     0.347580000000     0.263300000000     0.0564157  
H413     H      0.005870000000     0.379670000000     0.282670000000     0.0625988  
H414     H      0.503990000000     0.126300000000     0.203590000000     0.0931477  
H415     H      0.956270000000     0.130230000000     0.244480000000     0.0516951  
H416     H      0.970510000000     0.100100000000     0.290860000000     0.0454384  
H417     H      0.536710000000     0.151840000000     0.209990000000     0.0967727  
H418     H      0.549690000000     0.123980000000     0.258170000000     0.00339839 
H419     H      0.961410000000     0.157410000000     0.276270000000     0.0538119  
H420     H      0.003450000000     0.125560000000     0.298290000000     0.0394478  
H421     H      0.865580000000     0.202950000000     0.496570000000     0.0932688  
H422     H      0.874130000000     0.244120000000     0.543730000000     0.051464   
H423     H      0.912880000000     0.284370000000     0.530030000000     0.0491186  
H424     H      0.845490000000     0.217450000000     0.962980000000     0.0926031  
H425     H      0.887690000000     0.252080000000     0.949760000000     0.00300193 
H426     H      0.855290000000     0.281820000000     0.539260000000     0.050545   
H427     H      0.890550000000     0.295790000000     0.996290000000     0.0530821  
H428     H      0.630550000000     0.301010000000     0.994260000000     0.0920069  
H429     H      0.628660000000     0.258560000000     0.540590000000     0.0522724  
H430     H      0.602070000000     0.210680000000     0.522670000000     0.0460694  
H431     H      0.658500000000     0.294400000000     0.963850000000     0.0918097  
H432     H      0.630740000000     0.247540000000     0.946800000000    -0.000540996
H433     H      0.656480000000     0.226790000000     0.538330000000     0.0503672  
H434     H      0.630410000000     0.205400000000     0.491990000000     0.0434524  
H435     H      0.803860000000     0.373390000000     0.998870000000     0.0959935  
H436     H      0.763420000000     0.377690000000     0.548750000000     0.0556037  
H437     H      0.717180000000     0.411180000000     0.539010000000     0.048695   
H438     H      0.787010000000     0.357380000000     0.964350000000     0.0885566  
H439     H      0.754170000000     0.401180000000     0.956550000000    -0.000978847
H440     H      0.728000000000     0.355000000000     0.544850000000     0.0526395  
H441     H      0.709500000000     0.390540000000     0.503110000000     0.0478804  
H442     H      0.785750000000     0.131470000000     0.509740000000     0.0935936  
H443     H      0.742980000000     0.132800000000     0.963890000000     0.0521387  
H444     H      0.695320000000     0.107760000000     0.983380000000     0.0441849  
H445     H      0.782720000000     0.161020000000     0.539410000000     0.093072   
H446     H      0.733230000000     0.138200000000     0.557490000000     0.000455225
H447     H      0.713060000000     0.162500000000     0.967110000000     0.0495554  
H448     H      0.691270000000     0.137160000000     0.013450000000     0.0424885  
H449     H      0.737240000000     0.069850000000     0.897430000000     0.0904578  
H450     H      0.694260000000     0.025380000000     0.889920000000     0.0514378  
H451     H      0.711210000000     0.482100000000     0.855740000000     0.045429   
H452     H      0.772050000000     0.059190000000     0.917870000000     0.0899922  
H453     H      0.789070000000     0.025350000000     0.877000000000     0.0053266  
H454     H      0.699780000000     0.489480000000     0.911780000000     0.0511378  
H455     H      0.745330000000     0.475580000000     0.879480000000     0.0557145  
H456     H      0.702960000000     0.507640000000     0.630360000000     0.0986361  
H457     H      0.751780000000     0.049890000000     0.626170000000     0.0659926  
H458     H      0.790420000000     0.033430000000     0.663510000000     0.0502469  
H459     H      0.708320000000     0.471910000000     0.608410000000     0.0900248  
H460     H      0.750800000000     0.455100000000     0.643030000000     0.00125969 
H461     H      0.784970000000     0.036520000000     0.604590000000     0.0682577  
H462     H      0.797220000000     0.997360000000     0.643020000000     0.0523835  
H463     H      0.957730000000     0.257720000000     0.873410000000     0.10164    
H464     H      0.996470000000     0.206690000000     0.868340000000     0.0619873  
H465     H      0.541010000000     0.217720000000     0.833840000000     0.0486344  
H466     H      0.973300000000     0.290650000000     0.894210000000     0.0985832  
H467     H      0.511970000000     0.300290000000     0.854960000000     0.00490414 
H468     H      0.532280000000     0.209110000000     0.890360000000     0.0549307  
H469     H      0.551460000000     0.251750000000     0.856730000000     0.0560798  
H470     H      0.553090000000     0.249260000000     0.606230000000     0.0916041  
H471     H      0.511540000000     0.201040000000     0.607970000000     0.0532514  
H472     H      0.967300000000     0.214350000000     0.641870000000     0.0467959  
H473     H      0.541740000000     0.283190000000     0.584220000000     0.092533   
H474     H      0.000120000000     0.295110000000     0.620330000000    -0.000890104
H475     H      0.976750000000     0.206090000000     0.584810000000     0.0515414  
H476     H      0.958610000000     0.248730000000     0.618740000000     0.0468315  
H477     H      0.630210000000     0.054140000000     0.755800000000     0.0999282  
H478     H      0.630810000000     0.011160000000     0.801620000000     0.0444766  
H479     H      0.597830000000     0.467590000000     0.786270000000     0.0464611  
H480     H      0.656080000000     0.046850000000     0.723350000000     0.0975501  
H481     H      0.625090000000     0.501010000000     0.707410000000     0.0129941  
H482     H      0.655380000000     0.477450000000     0.796090000000     0.0487979  
H483     H      0.622820000000     0.458600000000     0.753940000000     0.051298   
H484     H      0.867760000000     0.995250000000     0.805350000000     0.101923   
H485     H      0.871880000000     0.048110000000     0.768110000000     0.0566069  
H486     H      0.904800000000     0.039120000000     0.721900000000     0.0484454  
H487     H      0.847610000000     0.462660000000     0.788290000000     0.0954657  
H488     H      0.887020000000     0.455230000000     0.749710000000     0.0098864  
H489     H      0.848710000000     0.046740000000     0.733040000000     0.0515509  
H490     H      0.882040000000     0.504880000000     0.711580000000     0.0517141  
H491     H      0.506660000000     0.369470000000     0.688180000000     0.105155   
H492     H      0.553100000000     0.372250000000     0.729190000000     0.059048   
H493     H      0.039700000000     0.403870000000     0.775270000000     0.0487181  
H494     H      0.472760000000     0.347260000000     0.698890000000     0.0975092  
H495     H      0.959090000000     0.384210000000     0.738950000000     0.0158987  
H496     H      0.549640000000     0.347580000000     0.763300000000     0.056437   
H497     H      0.005870000000     0.379670000000     0.782670000000     0.0626233  
H498     H      0.503990000000     0.126300000000     0.703590000000     0.0931868  
H499     H      0.956270000000     0.130230000000     0.744470000000     0.0517069  
H500     H      0.970510000000     0.100100000000     0.790860000000     0.0454778  
H501     H      0.536710000000     0.151840000000     0.709990000000     0.0967966  
H502     H      0.549690000000     0.123980000000     0.758170000000     0.00340962 
H503     H      0.961410000000     0.157410000000     0.776270000000     0.0538238  
H504     H      0.003450000000     0.125560000000     0.798290000000     0.0394772  
H505     H      0.865580000000     0.702950000000     0.996570000000     0.0937921  
H506     H      0.874130000000     0.744130000000     0.043730000000     0.0510612  
H507     H      0.912880000000     0.784370000000     0.030030000000     0.049515   
H508     H      0.845490000000     0.717450000000     0.462980000000     0.0926697  
H509     H      0.887690000000     0.752080000000     0.449760000000     0.00290509 
H510     H      0.855290000000     0.781820000000     0.039260000000     0.0502407  
H511     H      0.890550000000     0.795790000000     0.496290000000     0.0512171  
H512     H      0.630550000000     0.801000000000     0.494260000000     0.0918293  
H513     H      0.628660000000     0.758560000000     0.040590000000     0.0518796  
H514     H      0.602070000000     0.710680000000     0.022670000000     0.0463995  
H515     H      0.658500000000     0.794400000000     0.463850000000     0.0919263  
H516     H      0.630740000000     0.747540000000     0.446800000000    -0.000697589
H517     H      0.656480000000     0.726790000000     0.038330000000     0.0500724  
H518     H      0.630410000000     0.705400000000     0.991990000000     0.0455423  
H519     H      0.803860000000     0.873390000000     0.498870000000     0.0957583  
H520     H      0.763420000000     0.877690000000     0.048750000000     0.0557109  
H521     H      0.717180000000     0.911180000000     0.039010000000     0.0491632  
H522     H      0.787010000000     0.857380000000     0.464350000000     0.0886589  
H523     H      0.754170000000     0.901180000000     0.456550000000    -0.000759691
H524     H      0.728000000000     0.855000000000     0.044850000000     0.0527175  
H525     H      0.709500000000     0.890540000000     0.003110000000     0.0476957  
H526     H      0.785750000000     0.631470000000     0.009740000000     0.0932738  
H527     H      0.742980000000     0.632800000000     0.463890000000     0.0518473  
H528     H      0.695320000000     0.607750000000     0.483380000000     0.0445267  
H529     H      0.782720000000     0.661020000000     0.039410000000     0.0930877  
H530     H      0.733230000000     0.638200000000     0.057490000000     0.000380832
H531     H      0.713060000000     0.662500000000     0.467110000000     0.0492774  
H532     H      0.691270000000     0.637160000000     0.513450000000     0.0444427  
H533     H      0.737240000000     0.569850000000     0.397430000000     0.0902443  
H534     H      0.694260000000     0.525380000000     0.389920000000     0.0497974  
H535     H      0.711210000000     0.982100000000     0.355740000000     0.0443739  
H536     H      0.772050000000     0.559190000000     0.417870000000     0.0898815  
H537     H      0.789070000000     0.525350000000     0.377000000000     0.0064466  
H538     H      0.699780000000     0.989480000000     0.411780000000     0.0570204  
H539     H      0.745330000000     0.975580000000     0.379480000000     0.0547116  
H540     H      0.702960000000     0.007640000000     0.130360000000     0.0934396  
H541     H      0.751780000000     0.549890000000     0.126170000000     0.0667682  
H542     H      0.790420000000     0.533430000000     0.163510000000     0.0484458  
H543     H      0.708320000000     0.971910000000     0.108400000000     0.0892542  
H544     H      0.750800000000     0.955100000000     0.143030000000     0.00238376 
H545     H      0.784970000000     0.536530000000     0.104590000000     0.0693979  
H546     H      0.797220000000     0.497360000000     0.143020000000     0.0463685  
H547     H      0.957730000000     0.757720000000     0.373410000000     0.101666   
H548     H      0.996470000000     0.706690000000     0.368340000000     0.0620547  
H549     H      0.541010000000     0.717720000000     0.333840000000     0.0486655  
H550     H      0.973300000000     0.790650000000     0.394210000000     0.0986323  
H551     H      0.511970000000     0.800290000000     0.354960000000     0.00496181 
H552     H      0.532280000000     0.709110000000     0.390360000000     0.0549727  
H553     H      0.551460000000     0.751750000000     0.356730000000     0.0560982  
H554     H      0.553090000000     0.749260000000     0.106230000000     0.0915376  
H555     H      0.511540000000     0.701040000000     0.107970000000     0.0531836  
H556     H      0.967300000000     0.714350000000     0.141870000000     0.0468138  
H557     H      0.541740000000     0.783200000000     0.084220000000     0.0924397  
H558     H      0.000120000000     0.795110000000     0.120330000000    -0.000830868
H559     H      0.976750000000     0.706090000000     0.084810000000     0.0513939  
H560     H      0.958610000000     0.748730000000     0.118740000000     0.0468082  
H561     H      0.630210000000     0.554140000000     0.255800000000     0.100402   
H562     H      0.630810000000     0.511150000000     0.301620000000     0.0497734  
H563     H      0.597830000000     0.967600000000     0.286270000000     0.0482774  
H564     H      0.656080000000     0.546850000000     0.223350000000     0.0978162  
H565     H      0.625090000000     0.001010000000     0.207410000000     0.0121973  
H566     H      0.655380000000     0.977450000000     0.296090000000     0.0476287  
H567     H      0.622820000000     0.958600000000     0.253940000000     0.0526597  
H568     H      0.867760000000     0.495250000000     0.305350000000     0.100965   
H569     H      0.871880000000     0.548110000000     0.268110000000     0.0575332  
H570     H      0.904800000000     0.539120000000     0.221900000000     0.0478068  
H571     H      0.847610000000     0.962660000000     0.288290000000     0.0953098  
H572     H      0.887020000000     0.955230000000     0.249710000000     0.0109867  
H573     H      0.848710000000     0.546740000000     0.233040000000     0.0518602  
H574     H      0.882040000000     0.004880000000     0.211580000000     0.0511543  
H575     H      0.506660000000     0.869470000000     0.188170000000     0.105366   
H576     H      0.553100000000     0.872250000000     0.229180000000     0.0593088  
H577     H      0.039700000000     0.903870000000     0.275270000000     0.0490383  
H578     H      0.472760000000     0.847260000000     0.198890000000     0.0975711  
H579     H      0.959090000000     0.884210000000     0.238950000000     0.0160344  
H580     H      0.549640000000     0.847580000000     0.263300000000     0.0565081  
H581     H      0.005870000000     0.879670000000     0.282670000000     0.0627069  
H582     H      0.503990000000     0.626300000000     0.203590000000     0.0932513  
H583     H      0.956270000000     0.630230000000     0.244480000000     0.0518006  
H584     H      0.970510000000     0.600100000000     0.290860000000     0.0458555  
H585     H      0.536710000000     0.651840000000     0.209990000000     0.0968155  
H586     H      0.549690000000     0.623980000000     0.258170000000     0.00348574 
H587     H      0.961410000000     0.657410000000     0.276270000000     0.0538851  
H588     H      0.003450000000     0.625560000000     0.298290000000     0.0396465  
H589     H      0.865580000000     0.702950000000     0.496570000000     0.0933588  
H590     H      0.874130000000     0.744130000000     0.543730000000     0.0515157  
H591     H      0.912880000000     0.784370000000     0.530030000000     0.049242   
H592     H      0.845490000000     0.717450000000     0.962980000000     0.0926608  
H593     H      0.887690000000     0.752080000000     0.949760000000     0.00304837 
H594     H      0.855290000000     0.781820000000     0.539260000000     0.0506386  
H595     H      0.890550000000     0.795790000000     0.996290000000     0.0532148  
H596     H      0.630550000000     0.801000000000     0.994260000000     0.0922136  
H597     H      0.628660000000     0.758560000000     0.540590000000     0.0523303  
H598     H      0.602070000000     0.710680000000     0.522670000000     0.0461275  
H599     H      0.658500000000     0.794400000000     0.963850000000     0.0919416  
H600     H      0.630740000000     0.747540000000     0.946800000000    -0.000488678
H601     H      0.656480000000     0.726790000000     0.538330000000     0.0503993  
H602     H      0.630410000000     0.705400000000     0.491990000000     0.0435108  
H603     H      0.803860000000     0.873390000000     0.998870000000     0.0962371  
H604     H      0.763420000000     0.877690000000     0.548750000000     0.0558808  
H605     H      0.717180000000     0.911180000000     0.539010000000     0.0492446  
H606     H      0.787010000000     0.857380000000     0.964350000000     0.0886713  
H607     H      0.754170000000     0.901180000000     0.956550000000    -0.000617155
H608     H      0.728000000000     0.855000000000     0.544850000000     0.0527691  
H609     H      0.709500000000     0.890540000000     0.503110000000     0.048183   
H610     H      0.785750000000     0.631470000000     0.509740000000     0.0937088  
H611     H      0.742980000000     0.632800000000     0.963890000000     0.0521841  
H612     H      0.695320000000     0.607750000000     0.983380000000     0.0443263  
H613     H      0.782720000000     0.661020000000     0.539410000000     0.0931241  
H614     H      0.733230000000     0.638200000000     0.557490000000     0.00047661 
H615     H      0.713060000000     0.662500000000     0.967110000000     0.0495942  
H616     H      0.691270000000     0.637160000000     0.013450000000     0.0425783  
H617     H      0.737240000000     0.569850000000     0.897430000000     0.0903413  
H618     H      0.694260000000     0.525380000000     0.889920000000     0.0499041  
H619     H      0.711210000000     0.982100000000     0.855740000000     0.0444231  
H620     H      0.772050000000     0.559190000000     0.917870000000     0.0900853  
H621     H      0.789070000000     0.525350000000     0.877000000000     0.00653957 
H622     H      0.699780000000     0.989480000000     0.911780000000     0.0572038  
H623     H      0.745330000000     0.975580000000     0.879480000000     0.0548046  
H624     H      0.702960000000     0.007640000000     0.630360000000     0.0934882  
H625     H      0.751780000000     0.549890000000     0.626170000000     0.0667831  
H626     H      0.790420000000     0.533430000000     0.663510000000     0.0484683  
H627     H      0.708320000000     0.971910000000     0.608410000000     0.0893325  
H628     H      0.750800000000     0.955100000000     0.643030000000     0.00241136 
H629     H      0.784970000000     0.536530000000     0.604590000000     0.0694577  
H630     H      0.797220000000     0.497360000000     0.643020000000     0.0464217  
H631     H      0.957730000000     0.757720000000     0.873410000000     0.101686   
H632     H      0.996470000000     0.706690000000     0.868340000000     0.0620965  
H633     H      0.541010000000     0.717720000000     0.833840000000     0.0486776  
H634     H      0.973300000000     0.790650000000     0.894210000000     0.098694   
H635     H      0.511970000000     0.800290000000     0.854960000000     0.0050018  
H636     H      0.532280000000     0.709110000000     0.890360000000     0.0550293  
H637     H      0.551460000000     0.751750000000     0.856730000000     0.0561163  
H638     H      0.553090000000     0.749260000000     0.606230000000     0.0916242  
H639     H      0.511540000000     0.701040000000     0.607970000000     0.0532905  
H640     H      0.967300000000     0.714350000000     0.641870000000     0.0468542  
H641     H      0.541740000000     0.783200000000     0.584220000000     0.0926259  
H642     H      0.000120000000     0.795110000000     0.620330000000    -0.000741328
H643     H      0.976750000000     0.706090000000     0.584810000000     0.0515952  
H644     H      0.958610000000     0.748730000000     0.618740000000     0.0468958  
H645     H      0.630210000000     0.554140000000     0.755800000000     0.100414   
H646     H      0.630810000000     0.511150000000     0.801620000000     0.0498177  
H647     H      0.597830000000     0.967600000000     0.786270000000     0.0483086  
H648     H      0.656080000000     0.546850000000     0.723350000000     0.0978271  
H649     H      0.625090000000     0.001010000000     0.707410000000     0.0122239  
H650     H      0.655380000000     0.977450000000     0.796090000000     0.0476616  
H651     H      0.622820000000     0.958600000000     0.753940000000     0.0526705  
H652     H      0.867760000000     0.495250000000     0.805350000000     0.101018   
H653     H      0.871880000000     0.548110000000     0.768110000000     0.0575546  
H654     H      0.904800000000     0.539120000000     0.721900000000     0.0478332  
H655     H      0.847610000000     0.962660000000     0.788290000000     0.0953375  
H656     H      0.887020000000     0.955230000000     0.749710000000     0.0109974  
H657     H      0.848710000000     0.546740000000     0.733040000000     0.0518748  
H658     H      0.882040000000     0.004880000000     0.711580000000     0.0511873  
H659     H      0.506660000000     0.869470000000     0.688180000000     0.105478   
H660     H      0.553100000000     0.872250000000     0.729190000000     0.0593337  
H661     H      0.039700000000     0.903870000000     0.775270000000     0.0490603  
H662     H      0.472760000000     0.847260000000     0.698890000000     0.097648   
H663     H      0.959090000000     0.884210000000     0.738950000000     0.0160529  
H664     H      0.549640000000     0.847580000000     0.763300000000     0.0565291  
H665     H      0.005870000000     0.879670000000     0.782670000000     0.0627307  
H666     H      0.503990000000     0.626300000000     0.703590000000     0.0932904  
H667     H      0.956270000000     0.630230000000     0.744470000000     0.0518123  
H668     H      0.970510000000     0.600100000000     0.790860000000     0.0458938  
H669     H      0.536710000000     0.651840000000     0.709990000000     0.0968394  
H670     H      0.549690000000     0.623980000000     0.758170000000     0.00349671 
H671     H      0.961410000000     0.657410000000     0.776270000000     0.0538967  
H672     H      0.003450000000     0.625560000000     0.798290000000     0.0396753  
N1       N      0.412160000000     0.251200000000     0.492310000000    -0.192295   
N2       N      0.347350000000     0.248480000000     0.502610000000    -0.15242    
N3       N      0.099890000000     0.243880000000     0.984920000000    -0.193749   
N4       N      0.160020000000     0.262220000000     0.002680000000    -0.15327    
N5       N      0.250440000000     0.418450000000     0.502270000000    -0.191316   
N6       N      0.259910000000     0.352810000000     0.506220000000    -0.152186   
N7       N      0.228570000000     0.105410000000     0.020870000000    -0.197487   
N8       N      0.249450000000     0.164060000000     0.001650000000    -0.153078   
N9       N      0.246370000000     0.518110000000     0.353790000000    -0.191872   
N10      N      0.234990000000     0.524950000000     0.417730000000    -0.152827   
N11      N      0.254700000000     0.998030000000     0.167620000000    -0.187912   
N12      N      0.244480000000     0.006420000000     0.103790000000    -0.153866   
N13      N      0.509480000000     0.257010000000     0.331250000000    -0.193287   
N14      N      0.500730000000     0.248180000000     0.395190000000    -0.149096   
N15      N      0.000220000000     0.252260000000     0.145010000000    -0.197345   
N16      N      0.010910000000     0.243160000000     0.081730000000    -0.156957   
N17      N      0.096280000000     0.999810000000     0.247490000000    -0.187956   
N18      N      0.158070000000     0.013460000000     0.260830000000    -0.155919   
N19      N      0.409180000000     0.499340000000     0.252360000000    -0.192521   
N20      N      0.345270000000     0.506430000000     0.263260000000    -0.151533   
N21      N      0.502010000000     0.408160000000     0.242400000000    -0.191054   
N22      N      0.511970000000     0.344760000000     0.230270000000    -0.148523   
N23      N      0.009260000000     0.095620000000     0.259460000000    -0.199653   
N24      N      0.997650000000     0.157240000000     0.241480000000    -0.15044    
N25      N      0.412160000000     0.251200000000     0.992310000000    -0.19111    
N26      N      0.347350000000     0.248480000000     0.002610000000    -0.153208   
N27      N      0.099890000000     0.243880000000     0.484920000000    -0.194899   
N28      N      0.160020000000     0.262220000000     0.502680000000    -0.152509   
N29      N      0.250440000000     0.418450000000     0.002270000000    -0.192134   
N30      N      0.259910000000     0.352810000000     0.006220000000    -0.152767   
N31      N      0.228570000000     0.105410000000     0.520870000000    -0.196451   
N32      N      0.249450000000     0.164060000000     0.501650000000    -0.152691   
N33      N      0.246370000000     0.518110000000     0.853790000000    -0.191867   
N34      N      0.234990000000     0.524950000000     0.917730000000    -0.152695   
N35      N      0.254700000000     0.998030000000     0.667620000000    -0.187917   
N36      N      0.244480000000     0.006420000000     0.603790000000    -0.153857   
N37      N      0.509480000000     0.257010000000     0.831250000000    -0.193273   
N38      N      0.500730000000     0.248180000000     0.895190000000    -0.149101   
N39      N      0.000220000000     0.252260000000     0.645000000000    -0.197297   
N40      N      0.010910000000     0.243160000000     0.581730000000    -0.156838   
N41      N      0.096280000000     0.999810000000     0.747490000000    -0.187958   
N42      N      0.158070000000     0.013460000000     0.760830000000    -0.15591    
N43      N      0.409180000000     0.499340000000     0.752360000000    -0.192555   
N44      N      0.345270000000     0.506430000000     0.763260000000    -0.151526   
N45      N      0.502010000000     0.408160000000     0.742400000000    -0.191047   
N46      N      0.511970000000     0.344760000000     0.730270000000    -0.148486   
N47      N      0.009260000000     0.095620000000     0.759460000000    -0.199648   
N48      N      0.997650000000     0.157240000000     0.741480000000    -0.150435   
N49      N      0.412160000000     0.751200000000     0.492310000000    -0.192267   
N50      N      0.347350000000     0.748480000000     0.502610000000    -0.152397   
N51      N      0.099890000000     0.743870000000     0.984920000000    -0.193709   
N52      N      0.160020000000     0.762220000000     0.002680000000    -0.153225   
N53      N      0.250440000000     0.918450000000     0.502270000000    -0.190935   
N54      N      0.259910000000     0.852810000000     0.506220000000    -0.152151   
N55      N      0.228570000000     0.605410000000     0.020870000000    -0.197507   
N56      N      0.249450000000     0.664060000000     0.001650000000    -0.153068   
N57      N      0.246370000000     0.018110000000     0.353790000000    -0.194048   
N58      N      0.234990000000     0.024950000000     0.417730000000    -0.151753   
N59      N      0.254700000000     0.498030000000     0.167620000000    -0.194947   
N60      N      0.244480000000     0.506420000000     0.103790000000    -0.150226   
N61      N      0.509480000000     0.757010000000     0.331250000000    -0.193282   
N62      N      0.500730000000     0.748180000000     0.395190000000    -0.149068   
N63      N      0.000220000000     0.752260000000     0.145010000000    -0.19733    
N64      N      0.010910000000     0.743160000000     0.081730000000    -0.156966   
N65      N      0.096280000000     0.499810000000     0.247490000000    -0.193487   
N66      N      0.158070000000     0.513460000000     0.260830000000    -0.153463   
N67      N      0.409180000000     0.999340000000     0.252360000000    -0.18642    
N68      N      0.345270000000     0.006430000000     0.263260000000    -0.153412   
N69      N      0.502010000000     0.908160000000     0.242400000000    -0.19088    
N70      N      0.511970000000     0.844760000000     0.230270000000    -0.148489   
N71      N      0.009260000000     0.595620000000     0.259460000000    -0.199424   
N72      N      0.997650000000     0.657240000000     0.241480000000    -0.150426   
N73      N      0.412160000000     0.751200000000     0.992310000000    -0.191089   
N74      N      0.347350000000     0.748480000000     0.002610000000    -0.153182   
N75      N      0.099890000000     0.743870000000     0.484920000000    -0.194855   
N76      N      0.160020000000     0.762220000000     0.502680000000    -0.152467   
N77      N      0.250440000000     0.918450000000     0.002270000000    -0.191747   
N78      N      0.259910000000     0.852810000000     0.006220000000    -0.152728   
N79      N      0.228570000000     0.605410000000     0.520870000000    -0.196474   
N80      N      0.249450000000     0.664060000000     0.501650000000    -0.152682   
N81      N      0.246370000000     0.018110000000     0.853790000000    -0.194035   
N82      N      0.234990000000     0.024950000000     0.917730000000    -0.151626   
N83      N      0.254700000000     0.498030000000     0.667620000000    -0.194945   
N84      N      0.244480000000     0.506420000000     0.603790000000    -0.150218   
N85      N      0.509480000000     0.757010000000     0.831250000000    -0.193268   
N86      N      0.500730000000     0.748180000000     0.895190000000    -0.149073   
N87      N      0.000220000000     0.752260000000     0.645000000000    -0.197281   
N88      N      0.010910000000     0.743160000000     0.581730000000    -0.156847   
N89      N      0.096280000000     0.499810000000     0.747490000000    -0.193479   
N90      N      0.158070000000     0.513460000000     0.760830000000    -0.153459   
N91      N      0.409180000000     0.999340000000     0.752360000000    -0.186464   
N92      N      0.345270000000     0.006430000000     0.763260000000    -0.153402   
N93      N      0.502010000000     0.908160000000     0.742400000000    -0.190873   
N94      N      0.511970000000     0.844760000000     0.730270000000    -0.148453   
N95      N      0.009260000000     0.595620000000     0.759460000000    -0.199419   
N96      N      0.997650000000     0.657240000000     0.741480000000    -0.150422   
N97      N      0.912160000000     0.251200000000     0.492310000000    -0.191752   
N98      N      0.847350000000     0.248480000000     0.502610000000    -0.152391   
N99      N      0.599890000000     0.243880000000     0.984920000000    -0.193772   
N100     N      0.660020000000     0.262220000000     0.002680000000    -0.15327    
N101     N      0.750440000000     0.418450000000     0.502270000000    -0.191282   
N102     N      0.759910000000     0.352810000000     0.506220000000    -0.152153   
N103     N      0.728570000000     0.105410000000     0.020870000000    -0.197466   
N104     N      0.749450000000     0.164060000000     0.001650000000    -0.153065   
N105     N      0.746370000000     0.518110000000     0.353790000000    -0.191886   
N106     N      0.734990000000     0.524950000000     0.417730000000    -0.15279    
N107     N      0.754700000000     0.998030000000     0.167620000000    -0.187888   
N108     N      0.744480000000     0.006420000000     0.103790000000    -0.153842   
N109     N      0.009480000000     0.257010000000     0.331250000000    -0.19631    
N110     N      0.000730000000     0.248180000000     0.395190000000    -0.149641   
N111     N      0.500220000000     0.252260000000     0.145010000000    -0.19584    
N112     N      0.510910000000     0.243160000000     0.081730000000    -0.153392   
N113     N      0.596280000000     0.999810000000     0.247490000000    -0.187985   
N114     N      0.658070000000     0.013460000000     0.260830000000    -0.155913   
N115     N      0.909190000000     0.499340000000     0.252360000000    -0.192172   
N116     N      0.845270000000     0.506430000000     0.263260000000    -0.151507   
N117     N      0.002010000000     0.408160000000     0.242400000000    -0.19241    
N118     N      0.011970000000     0.344760000000     0.230270000000    -0.151136   
N119     N      0.509260000000     0.095620000000     0.259460000000    -0.195775   
N120     N      0.497660000000     0.157240000000     0.241480000000    -0.153154   
N121     N      0.912160000000     0.251200000000     0.992310000000    -0.190562   
N122     N      0.847350000000     0.248480000000     0.002610000000    -0.153184   
N123     N      0.599890000000     0.243880000000     0.484920000000    -0.194931   
N124     N      0.660020000000     0.262220000000     0.502680000000    -0.152502   
N125     N      0.750440000000     0.418450000000     0.002270000000    -0.192106   
N126     N      0.759910000000     0.352810000000     0.006220000000    -0.152737   
N127     N      0.728570000000     0.105410000000     0.520870000000    -0.196423   
N128     N      0.749450000000     0.164060000000     0.501650000000    -0.152675   
N129     N      0.746370000000     0.518110000000     0.853790000000    -0.191881   
N130     N      0.734990000000     0.524950000000     0.917730000000    -0.152658   
N131     N      0.754700000000     0.998030000000     0.667620000000    -0.187893   
N132     N      0.744480000000     0.006420000000     0.603790000000    -0.153833   
N133     N      0.009480000000     0.257010000000     0.831250000000    -0.196298   
N134     N      0.000730000000     0.248180000000     0.895190000000    -0.149647   
N135     N      0.500220000000     0.252260000000     0.645000000000    -0.195784   
N136     N      0.510910000000     0.243160000000     0.581730000000    -0.153259   
N137     N      0.596280000000     0.999810000000     0.747490000000    -0.187988   
N138     N      0.658070000000     0.013460000000     0.760830000000    -0.155904   
N139     N      0.909190000000     0.499340000000     0.752360000000    -0.192206   
N140     N      0.845270000000     0.506430000000     0.763260000000    -0.1515     
N141     N      0.002010000000     0.408160000000     0.742400000000    -0.192404   
N142     N      0.011970000000     0.344760000000     0.730270000000    -0.151106   
N143     N      0.509260000000     0.095620000000     0.759460000000    -0.195765   
N144     N      0.497660000000     0.157240000000     0.741480000000    -0.153154   
N145     N      0.912160000000     0.751200000000     0.492310000000    -0.191723   
N146     N      0.847350000000     0.748480000000     0.502610000000    -0.152368   
N147     N      0.599890000000     0.743870000000     0.984920000000    -0.193733   
N148     N      0.660020000000     0.762220000000     0.002680000000    -0.153225   
N149     N      0.750440000000     0.918450000000     0.502270000000    -0.1909     
N150     N      0.759910000000     0.852810000000     0.506220000000    -0.152117   
N151     N      0.728570000000     0.605410000000     0.020870000000    -0.197485   
N152     N      0.749450000000     0.664060000000     0.001650000000    -0.153055   
N153     N      0.746370000000     0.018110000000     0.353790000000    -0.194066   
N154     N      0.734990000000     0.024950000000     0.417730000000    -0.151715   
N155     N      0.754700000000     0.498030000000     0.167620000000    -0.194934   
N156     N      0.744480000000     0.506420000000     0.103790000000    -0.150195   
N157     N      0.009480000000     0.757010000000     0.331250000000    -0.196308   
N158     N      0.000730000000     0.748180000000     0.395190000000    -0.149614   
N159     N      0.500220000000     0.752260000000     0.145010000000    -0.195822   
N160     N      0.510910000000     0.743160000000     0.081730000000    -0.153394   
N161     N      0.596280000000     0.499810000000     0.247490000000    -0.193535   
N162     N      0.658070000000     0.513460000000     0.260830000000    -0.153449   
N163     N      0.909190000000     0.999340000000     0.252360000000    -0.18607    
N164     N      0.845270000000     0.006430000000     0.263260000000    -0.153388   
N165     N      0.002010000000     0.908160000000     0.242400000000    -0.192238   
N166     N      0.011970000000     0.844760000000     0.230270000000    -0.151102   
N167     N      0.509260000000     0.595620000000     0.259460000000    -0.195533   
N168     N      0.497660000000     0.657240000000     0.241480000000    -0.153149   
N169     N      0.912160000000     0.751200000000     0.992310000000    -0.19054    
N170     N      0.847350000000     0.748480000000     0.002610000000    -0.153157   
N171     N      0.599890000000     0.743870000000     0.484920000000    -0.194886   
N172     N      0.660020000000     0.762220000000     0.502680000000    -0.152461   
N173     N      0.750440000000     0.918450000000     0.002270000000    -0.191719   
N174     N      0.759910000000     0.852810000000     0.006220000000    -0.152698   
N175     N      0.728570000000     0.605410000000     0.520870000000    -0.196446   
N176     N      0.749450000000     0.664060000000     0.501650000000    -0.152665   
N177     N      0.746370000000     0.018110000000     0.853790000000    -0.194053   
N178     N      0.734990000000     0.024950000000     0.917730000000    -0.151586   
N179     N      0.754700000000     0.498030000000     0.667620000000    -0.194931   
N180     N      0.744480000000     0.506420000000     0.603790000000    -0.150186   
N181     N      0.009480000000     0.757010000000     0.831250000000    -0.196296   
N182     N      0.000730000000     0.748180000000     0.895190000000    -0.14962    
N183     N      0.500220000000     0.752260000000     0.645000000000    -0.195766   
N184     N      0.510910000000     0.743160000000     0.581730000000    -0.15326    
N185     N      0.596280000000     0.499810000000     0.747490000000    -0.193527   
N186     N      0.658070000000     0.513460000000     0.760830000000    -0.153446   
N187     N      0.909190000000     0.999340000000     0.752360000000    -0.186114   
N188     N      0.845270000000     0.006430000000     0.763260000000    -0.153378   
N189     N      0.002010000000     0.908160000000     0.742400000000    -0.192232   
N190     N      0.011970000000     0.844760000000     0.730270000000    -0.151072   
N191     N      0.509260000000     0.595620000000     0.759460000000    -0.195523   
N192     N      0.497660000000     0.657240000000     0.741480000000    -0.153149   
O1       O      0.001530000000     0.046970000000     0.280830000000    -0.398318   
O2       O      0.005840000000     0.452290000000     0.271990000000    -0.391913   
O3       O      0.050700000000     0.500160000000     0.274960000000    -0.39803    
O4       O      0.456280000000     0.996310000000     0.277300000000    -0.351728   
O5       O      0.454980000000     0.007980000000     0.226650000000    -0.393354   
O6       O      0.049120000000     0.502570000000     0.223000000000    -0.353731   
O7       O      0.498390000000     0.457290000000     0.220780000000    -0.354771   
O8       O      0.506230000000     0.051770000000     0.229250000000    -0.358521   
O9       O      0.026180000000     0.202110000000     0.234420000000    -0.398056   
O10      O      0.033770000000     0.296720000000     0.239440000000    -0.380798   
O11      O      0.031860000000     0.246770000000     0.284060000000    -0.397766   
O12      O      0.028250000000     0.252820000000     0.190180000000    -0.358259   
O13      O      0.476580000000     0.246420000000     0.192340000000    -0.395795   
O14      O      0.481660000000     0.260570000000     0.285740000000    -0.352575   
O15      O      0.482410000000     0.300060000000     0.231330000000    -0.379827   
O16      O      0.475650000000     0.206110000000     0.246290000000    -0.390124   
O17      O      0.297730000000     0.481340000000     0.265400000000    -0.387062   
O18      O      0.203020000000     0.485060000000     0.263930000000    -0.38669    
O19      O      0.250020000000     0.477560000000     0.216710000000    -0.362884   
O20      O      0.248440000000     0.487690000000     0.310290000000    -0.402271   
O21      O      0.251580000000     0.039790000000     0.304940000000    -0.351337   
O22      O      0.255540000000     0.029420000000     0.210730000000    -0.393572   
O23      O      0.205700000000     0.036730000000     0.255030000000    -0.388627   
O24      O      0.299660000000     0.033360000000     0.258880000000    -0.390896   
O25      O      0.268150000000     0.009790000000     0.056230000000    -0.38241    
O26      O      0.262980000000     0.024060000000     0.463080000000    -0.385019   
O27      O      0.260010000000     0.062280000000     0.517540000000    -0.365681   
O28      O      0.270950000000     0.468580000000     0.001630000000    -0.350202   
O29      O      0.219890000000     0.461770000000     0.009310000000    -0.400462   
O30      O      0.208380000000     0.056230000000     0.513320000000    -0.394029   
O31      O      0.212520000000     0.511050000000     0.464090000000    -0.391739   
O32      O      0.216200000000     0.505650000000     0.058520000000    -0.384417   
O33      O      0.002350000000     0.219520000000     0.034830000000    -0.396737   
O34      O      0.007600000000     0.221800000000     0.440970000000    -0.383308   
O35      O      0.052560000000     0.219260000000     0.490720000000    -0.392662   
O36      O      0.457530000000     0.223110000000     0.985350000000    -0.349918   
O37      O      0.460240000000     0.274290000000     0.996150000000    -0.395062   
O38      O      0.053800000000     0.270940000000     0.482120000000    -0.356165   
O39      O      0.499900000000     0.273620000000     0.442300000000    -0.37818    
O40      O      0.513990000000     0.270610000000     0.035890000000    -0.390871   
O41      O      0.256060000000     0.210350000000     0.027560000000    -0.392062   
O42      O      0.252330000000     0.305200000000     0.029740000000    -0.391398   
O43      O      0.206540000000     0.255590000000     0.028420000000    -0.386976   
O44      O      0.301620000000     0.259210000000     0.028320000000    -0.387106   
O45      O      0.300460000000     0.250580000000     0.477120000000    -0.386382   
O46      O      0.207040000000     0.266700000000     0.477690000000    -0.387884   
O47      O      0.261790000000     0.306340000000     0.478730000000    -0.382682   
O48      O      0.245910000000     0.211620000000     0.476630000000    -0.384803   
O49      O      0.001530000000     0.046970000000     0.780830000000    -0.398283   
O50      O      0.005840000000     0.452290000000     0.771990000000    -0.39189    
O51      O      0.050700000000     0.500160000000     0.774960000000    -0.398011   
O52      O      0.456280000000     0.996310000000     0.777290000000    -0.351873   
O53      O      0.454980000000     0.007980000000     0.726650000000    -0.393387   
O54      O      0.049120000000     0.502570000000     0.723000000000    -0.353709   
O55      O      0.498390000000     0.457290000000     0.720780000000    -0.354743   
O56      O      0.506230000000     0.051770000000     0.729250000000    -0.358504   
O57      O      0.026180000000     0.202110000000     0.734420000000    -0.39807    
O58      O      0.033770000000     0.296720000000     0.739440000000    -0.3808     
O59      O      0.031860000000     0.246770000000     0.784050000000    -0.397769   
O60      O      0.028250000000     0.252820000000     0.690180000000    -0.358248   
O61      O      0.476580000000     0.246420000000     0.692340000000    -0.395842   
O62      O      0.481660000000     0.260570000000     0.785740000000    -0.352449   
O63      O      0.482410000000     0.300060000000     0.731330000000    -0.379832   
O64      O      0.475650000000     0.206110000000     0.746290000000    -0.390102   
O65      O      0.297730000000     0.481340000000     0.765400000000    -0.387053   
O66      O      0.203020000000     0.485060000000     0.763930000000    -0.386686   
O67      O      0.250020000000     0.477560000000     0.716710000000    -0.362881   
O68      O      0.248440000000     0.487690000000     0.810290000000    -0.402255   
O69      O      0.251580000000     0.039790000000     0.804940000000    -0.351332   
O70      O      0.255540000000     0.029420000000     0.710730000000    -0.393573   
O71      O      0.205700000000     0.036730000000     0.755030000000    -0.388627   
O72      O      0.299660000000     0.033360000000     0.758880000000    -0.390893   
O73      O      0.268150000000     0.009790000000     0.556230000000    -0.382588   
O74      O      0.262980000000     0.024060000000     0.963080000000    -0.383709   
O75      O      0.260010000000     0.062280000000     0.017540000000    -0.365851   
O76      O      0.270950000000     0.468580000000     0.501630000000    -0.349741   
O77      O      0.219890000000     0.461770000000     0.509310000000    -0.400307   
O78      O      0.208380000000     0.056230000000     0.013320000000    -0.394421   
O79      O      0.212520000000     0.511050000000     0.964090000000    -0.390418   
O80      O      0.216200000000     0.505650000000     0.558520000000    -0.384602   
O81      O      0.002350000000     0.219520000000     0.534830000000    -0.395428   
O82      O      0.007600000000     0.221800000000     0.940970000000    -0.383515   
O83      O      0.052560000000     0.219260000000     0.990720000000    -0.39219    
O84      O      0.457530000000     0.223110000000     0.485350000000    -0.350121   
O85      O      0.460240000000     0.274290000000     0.496150000000    -0.39554    
O86      O      0.053800000000     0.270940000000     0.982120000000    -0.355983   
O87      O      0.499900000000     0.273620000000     0.942300000000    -0.378379   
O88      O      0.513990000000     0.270610000000     0.535890000000    -0.389561   
O89      O      0.256060000000     0.210350000000     0.527550000000    -0.392697   
O90      O      0.252330000000     0.305200000000     0.529750000000    -0.391716   
O91      O      0.206540000000     0.255590000000     0.528420000000    -0.387428   
O92      O      0.301620000000     0.259210000000     0.528320000000    -0.387533   
O93      O      0.300460000000     0.250580000000     0.977120000000    -0.384788   
O94      O      0.207040000000     0.266700000000     0.977690000000    -0.386282   
O95      O      0.261790000000     0.306340000000     0.978730000000    -0.381108   
O96      O      0.245910000000     0.211620000000     0.976630000000    -0.383132   
O97      O      0.001530000000     0.546970000000     0.280830000000    -0.395084   
O98      O      0.005840000000     0.952290000000     0.271990000000    -0.392397   
O99      O      0.050700000000     0.000160000000     0.274960000000    -0.401537   
O100     O      0.456280000000     0.496320000000     0.277300000000    -0.356558   
O101     O      0.454980000000     0.507990000000     0.226650000000    -0.395284   
O102     O      0.049120000000     0.002570000000     0.223000000000    -0.35319    
O103     O      0.498390000000     0.957300000000     0.220780000000    -0.351116   
O104     O      0.506230000000     0.551760000000     0.229250000000    -0.359285   
O105     O      0.026180000000     0.702110000000     0.234420000000    -0.398062   
O106     O      0.033770000000     0.796720000000     0.239440000000    -0.380764   
O107     O      0.031860000000     0.746770000000     0.284060000000    -0.397754   
O108     O      0.028250000000     0.752820000000     0.190180000000    -0.358243   
O109     O      0.476580000000     0.746420000000     0.192340000000    -0.395775   
O110     O      0.481660000000     0.760570000000     0.285740000000    -0.352564   
O111     O      0.482410000000     0.800060000000     0.231330000000    -0.379797   
O112     O      0.475650000000     0.706110000000     0.246290000000    -0.390112   
O113     O      0.297730000000     0.981340000000     0.265400000000    -0.382559   
O114     O      0.203020000000     0.985060000000     0.263930000000    -0.382373   
O115     O      0.250020000000     0.977570000000     0.216710000000    -0.357614   
O116     O      0.248440000000     0.987690000000     0.310290000000    -0.39793    
O117     O      0.251580000000     0.539790000000     0.304940000000    -0.352631   
O118     O      0.255540000000     0.529420000000     0.210730000000    -0.395912   
O119     O      0.205700000000     0.536730000000     0.255030000000    -0.389955   
O120     O      0.299660000000     0.533360000000     0.258880000000    -0.392273   
O121     O      0.268150000000     0.509790000000     0.056230000000    -0.381637   
O122     O      0.262980000000     0.524060000000     0.463080000000    -0.384794   
O123     O      0.260010000000     0.562280000000     0.517540000000    -0.366268   
O124     O      0.270950000000     0.968580000000     0.001630000000    -0.346543   
O125     O      0.219890000000     0.961770000000     0.009310000000    -0.396882   
O126     O      0.208380000000     0.556230000000     0.513320000000    -0.394555   
O127     O      0.212520000000     0.011050000000     0.464090000000    -0.392548   
O128     O      0.216200000000     0.005650000000     0.058520000000    -0.385448   
O129     O      0.002350000000     0.719520000000     0.034830000000    -0.396676   
O130     O      0.007600000000     0.721800000000     0.440970000000    -0.383236   
O131     O      0.052560000000     0.719260000000     0.490720000000    -0.392585   
O132     O      0.457530000000     0.723110000000     0.985350000000    -0.349853   
O133     O      0.460240000000     0.774290000000     0.996150000000    -0.394975   
O134     O      0.053800000000     0.770940000000     0.482120000000    -0.356095   
O135     O      0.499900000000     0.773620000000     0.442300000000    -0.378105   
O136     O      0.513990000000     0.770610000000     0.035890000000    -0.39078    
O137     O      0.256060000000     0.710350000000     0.027560000000    -0.392079   
O138     O      0.252330000000     0.805190000000     0.029740000000    -0.391384   
O139     O      0.206540000000     0.755590000000     0.028420000000    -0.38695    
O140     O      0.301620000000     0.759210000000     0.028320000000    -0.387087   
O141     O      0.300460000000     0.750570000000     0.477120000000    -0.386332   
O142     O      0.207040000000     0.766700000000     0.477690000000    -0.387876   
O143     O      0.261790000000     0.806340000000     0.478730000000    -0.38262    
O144     O      0.245910000000     0.711620000000     0.476630000000    -0.384784   
O145     O      0.001530000000     0.546970000000     0.780830000000    -0.395056   
O146     O      0.005840000000     0.952290000000     0.771990000000    -0.392373   
O147     O      0.050700000000     0.000160000000     0.774960000000    -0.40151    
O148     O      0.456280000000     0.496320000000     0.777290000000    -0.356697   
O149     O      0.454980000000     0.507990000000     0.726650000000    -0.395314   
O150     O      0.049120000000     0.002570000000     0.723000000000    -0.353169   
O151     O      0.498390000000     0.957300000000     0.720780000000    -0.351093   
O152     O      0.506230000000     0.551760000000     0.729250000000    -0.359267   
O153     O      0.026180000000     0.702110000000     0.734420000000    -0.398076   
O154     O      0.033770000000     0.796720000000     0.739440000000    -0.380766   
O155     O      0.031860000000     0.746770000000     0.784050000000    -0.397758   
O156     O      0.028250000000     0.752820000000     0.690180000000    -0.358232   
O157     O      0.476580000000     0.746420000000     0.692340000000    -0.395822   
O158     O      0.481660000000     0.760570000000     0.785740000000    -0.352439   
O159     O      0.482410000000     0.800060000000     0.731330000000    -0.379802   
O160     O      0.475650000000     0.706110000000     0.746290000000    -0.39009    
O161     O      0.297730000000     0.981340000000     0.765400000000    -0.382559   
O162     O      0.203020000000     0.985060000000     0.763930000000    -0.382377   
O163     O      0.250020000000     0.977570000000     0.716710000000    -0.357617   
O164     O      0.248440000000     0.987690000000     0.810290000000    -0.397926   
O165     O      0.251580000000     0.539790000000     0.804940000000    -0.352623   
O166     O      0.255540000000     0.529420000000     0.710730000000    -0.39591    
O167     O      0.205700000000     0.536730000000     0.755030000000    -0.389952   
O168     O      0.299660000000     0.533360000000     0.758880000000    -0.392267   
O169     O      0.268150000000     0.509790000000     0.556230000000    -0.381814   
O170     O      0.262980000000     0.524060000000     0.963080000000    -0.383489   
O171     O      0.260010000000     0.562280000000     0.017540000000    -0.366436   
O172     O      0.270950000000     0.968580000000     0.501630000000    -0.346083   
O173     O      0.219890000000     0.961770000000     0.509310000000    -0.396726   
O174     O      0.208380000000     0.556230000000     0.013320000000    -0.394946   
O175     O      0.212520000000     0.011050000000     0.964090000000    -0.391221   
O176     O      0.216200000000     0.005650000000     0.558520000000    -0.385632   
O177     O      0.002350000000     0.719520000000     0.534830000000    -0.395373   
O178     O      0.007600000000     0.721800000000     0.940970000000    -0.383442   
O179     O      0.052560000000     0.719260000000     0.990720000000    -0.392117   
O180     O      0.457530000000     0.723110000000     0.485350000000    -0.350055   
O181     O      0.460240000000     0.774290000000     0.496150000000    -0.39545    
O182     O      0.053800000000     0.770940000000     0.982120000000    -0.355915   
O183     O      0.499900000000     0.773620000000     0.942300000000    -0.378303   
O184     O      0.513990000000     0.770610000000     0.535890000000    -0.389477   
O185     O      0.256060000000     0.710350000000     0.527550000000    -0.392713   
O186     O      0.252330000000     0.805190000000     0.529750000000    -0.3917     
O187     O      0.206540000000     0.755590000000     0.528420000000    -0.387401   
O188     O      0.301620000000     0.759210000000     0.528320000000    -0.387512   
O189     O      0.300460000000     0.750570000000     0.977120000000    -0.384745   
O190     O      0.207040000000     0.766700000000     0.977690000000    -0.386282   
O191     O      0.261790000000     0.806340000000     0.978730000000    -0.381056   
O192     O      0.245910000000     0.711620000000     0.976630000000    -0.38312    
O193     O      0.501530000000     0.046970000000     0.280830000000    -0.397117   
O194     O      0.505840000000     0.452290000000     0.271990000000    -0.393137   
O195     O      0.550700000000     0.500160000000     0.274960000000    -0.398758   
O196     O      0.956280000000     0.996310000000     0.277300000000    -0.347234   
O197     O      0.954980000000     0.007980000000     0.226650000000    -0.3887     
O198     O      0.549120000000     0.502570000000     0.223000000000    -0.354631   
O199     O      0.998390000000     0.457290000000     0.220780000000    -0.344701   
O200     O      0.006230000000     0.051770000000     0.229250000000    -0.358441   
O201     O      0.526190000000     0.202110000000     0.234420000000    -0.392937   
O202     O      0.533770000000     0.296720000000     0.239440000000    -0.38235    
O203     O      0.531860000000     0.246770000000     0.284060000000    -0.399152   
O204     O      0.528250000000     0.252820000000     0.190180000000    -0.359912   
O205     O      0.976580000000     0.246420000000     0.192340000000    -0.39038    
O206     O      0.981660000000     0.260570000000     0.285740000000    -0.347233   
O207     O      0.982410000000     0.300060000000     0.231330000000    -0.37437    
O208     O      0.975650000000     0.206110000000     0.246290000000    -0.391239   
O209     O      0.797730000000     0.481340000000     0.265400000000    -0.3871     
O210     O      0.703020000000     0.485060000000     0.263930000000    -0.386593   
O211     O      0.750020000000     0.477560000000     0.216710000000    -0.362863   
O212     O      0.748440000000     0.487690000000     0.310290000000    -0.40224    
O213     O      0.751580000000     0.039790000000     0.304940000000    -0.351325   
O214     O      0.755540000000     0.029420000000     0.210730000000    -0.393554   
O215     O      0.705700000000     0.036730000000     0.255030000000    -0.388613   
O216     O      0.799660000000     0.033360000000     0.258880000000    -0.390853   
O217     O      0.768150000000     0.009790000000     0.056230000000    -0.382296   
O218     O      0.762980000000     0.024060000000     0.463080000000    -0.384922   
O219     O      0.760010000000     0.062280000000     0.517540000000    -0.365607   
O220     O      0.770950000000     0.468580000000     0.001630000000    -0.350076   
O221     O      0.719890000000     0.461770000000     0.009310000000    -0.400399   
O222     O      0.708380000000     0.056230000000     0.513320000000    -0.393941   
O223     O      0.712520000000     0.511050000000     0.464090000000    -0.391659   
O224     O      0.716200000000     0.505650000000     0.058520000000    -0.384348   
O225     O      0.502350000000     0.219520000000     0.034830000000    -0.395335   
O226     O      0.507600000000     0.221800000000     0.440970000000    -0.38451    
O227     O      0.552550000000     0.219260000000     0.490720000000    -0.39335    
O228     O      0.957530000000     0.223110000000     0.985350000000    -0.345547   
O229     O      0.960240000000     0.274290000000     0.996150000000    -0.390388   
O230     O      0.553800000000     0.270940000000     0.482120000000    -0.357019   
O231     O      0.999900000000     0.273620000000     0.442300000000    -0.368116   
O232     O      0.013990000000     0.270610000000     0.035890000000    -0.390597   
O233     O      0.756060000000     0.210350000000     0.027560000000    -0.392041   
O234     O      0.752320000000     0.305200000000     0.029740000000    -0.391334   
O235     O      0.706540000000     0.255590000000     0.028420000000    -0.386967   
O236     O      0.801620000000     0.259210000000     0.028320000000    -0.387051   
O237     O      0.800460000000     0.250580000000     0.477120000000    -0.386337   
O238     O      0.707040000000     0.266700000000     0.477690000000    -0.387882   
O239     O      0.761790000000     0.306340000000     0.478730000000    -0.382639   
O240     O      0.745910000000     0.211620000000     0.476630000000    -0.384791   
O241     O      0.501530000000     0.046970000000     0.780830000000    -0.39708    
O242     O      0.505840000000     0.452290000000     0.771990000000    -0.393117   
O243     O      0.550700000000     0.500160000000     0.774960000000    -0.398739   
O244     O      0.956280000000     0.996310000000     0.777290000000    -0.347372   
O245     O      0.954980000000     0.007980000000     0.726650000000    -0.388723   
O246     O      0.549120000000     0.502570000000     0.723000000000    -0.35461    
O247     O      0.998390000000     0.457290000000     0.720780000000    -0.344654   
O248     O      0.006230000000     0.051770000000     0.729250000000    -0.358424   
O249     O      0.526190000000     0.202110000000     0.734420000000    -0.392942   
O250     O      0.533770000000     0.296720000000     0.739440000000    -0.382355   
O251     O      0.531860000000     0.246770000000     0.784050000000    -0.399157   
O252     O      0.528250000000     0.252820000000     0.690180000000    -0.359905   
O253     O      0.976580000000     0.246420000000     0.692340000000    -0.390413   
O254     O      0.981660000000     0.260570000000     0.785740000000    -0.347101   
O255     O      0.982410000000     0.300060000000     0.731330000000    -0.374365   
O256     O      0.975650000000     0.206110000000     0.746290000000    -0.391218   
O257     O      0.797730000000     0.481340000000     0.765400000000    -0.387092   
O258     O      0.703020000000     0.485060000000     0.763930000000    -0.386588   
O259     O      0.750020000000     0.477560000000     0.716710000000    -0.36286    
O260     O      0.748440000000     0.487690000000     0.810290000000    -0.402225   
O261     O      0.751580000000     0.039790000000     0.804940000000    -0.35132    
O262     O      0.755540000000     0.029420000000     0.710730000000    -0.393555   
O263     O      0.705700000000     0.036730000000     0.755030000000    -0.388613   
O264     O      0.799660000000     0.033360000000     0.758880000000    -0.390849   
O265     O      0.768150000000     0.009790000000     0.556230000000    -0.382475   
O266     O      0.762980000000     0.024060000000     0.963080000000    -0.383605   
O267     O      0.760010000000     0.062280000000     0.017540000000    -0.365778   
O268     O      0.770950000000     0.468580000000     0.501630000000    -0.349612   
O269     O      0.719890000000     0.461770000000     0.509310000000    -0.400243   
O270     O      0.708380000000     0.056230000000     0.013320000000    -0.394336   
O271     O      0.712520000000     0.511050000000     0.964090000000    -0.39033    
O272     O      0.716200000000     0.505650000000     0.558520000000    -0.384534   
O273     O      0.502350000000     0.219520000000     0.534830000000    -0.394007   
O274     O      0.507600000000     0.221800000000     0.940970000000    -0.384718   
O275     O      0.552550000000     0.219260000000     0.990720000000    -0.392876   
O276     O      0.957530000000     0.223110000000     0.485350000000    -0.345748   
O277     O      0.960240000000     0.274290000000     0.496150000000    -0.390862   
O278     O      0.553800000000     0.270940000000     0.982120000000    -0.356836   
O279     O      0.999900000000     0.273620000000     0.942300000000    -0.368317   
O280     O      0.013990000000     0.270610000000     0.535890000000    -0.389301   
O281     O      0.756060000000     0.210350000000     0.527550000000    -0.392679   
O282     O      0.752320000000     0.305200000000     0.529750000000    -0.391655   
O283     O      0.706540000000     0.255590000000     0.528420000000    -0.387423   
O284     O      0.801620000000     0.259210000000     0.528320000000    -0.38748    
O285     O      0.800460000000     0.250580000000     0.977120000000    -0.384734   
O286     O      0.707040000000     0.266700000000     0.977690000000    -0.38627    
O287     O      0.761790000000     0.306340000000     0.978730000000    -0.381056   
O288     O      0.745910000000     0.211620000000     0.976630000000    -0.38311    
O289     O      0.501530000000     0.546970000000     0.280830000000    -0.393861   
O290     O      0.505840000000     0.952290000000     0.271990000000    -0.39362    
O291     O      0.550700000000     0.000160000000     0.274960000000    -0.402283   
O292     O      0.956280000000     0.496320000000     0.277300000000    -0.352059   
O293     O      0.954980000000     0.507990000000     0.226650000000    -0.390607   
O294     O      0.549120000000     0.002570000000     0.223000000000    -0.354084   
O295     O      0.998390000000     0.957300000000     0.220780000000    -0.341078   
O296     O      0.006230000000     0.551760000000     0.229250000000    -0.359202   
O297     O      0.526190000000     0.702110000000     0.234420000000    -0.392933   
O298     O      0.533770000000     0.796720000000     0.239440000000    -0.382318   
O299     O      0.531860000000     0.746770000000     0.284060000000    -0.399142   
O300     O      0.528250000000     0.752820000000     0.190180000000    -0.359898   
O301     O      0.976580000000     0.746420000000     0.192340000000    -0.390352   
O302     O      0.981660000000     0.760570000000     0.285740000000    -0.347216   
O303     O      0.982410000000     0.800060000000     0.231330000000    -0.374338   
O304     O      0.975650000000     0.706110000000     0.246290000000    -0.391229   
O305     O      0.797730000000     0.981340000000     0.265400000000    -0.382593   
O306     O      0.703020000000     0.985060000000     0.263930000000    -0.382266   
O307     O      0.750020000000     0.977570000000     0.216710000000    -0.357584   
O308     O      0.748440000000     0.987690000000     0.310290000000    -0.397893   
O309     O      0.751580000000     0.539790000000     0.304940000000    -0.352621   
O310     O      0.755540000000     0.529420000000     0.210730000000    -0.395898   
O311     O      0.705700000000     0.536730000000     0.255030000000    -0.389943   
O312     O      0.799660000000     0.533360000000     0.258880000000    -0.392232   
O313     O      0.768150000000     0.509790000000     0.056230000000    -0.381521   
O314     O      0.762980000000     0.524060000000     0.463080000000    -0.384696   
O315     O      0.760010000000     0.562280000000     0.517540000000    -0.366195   
O316     O      0.770950000000     0.968580000000     0.001630000000    -0.346413   
O317     O      0.719890000000     0.961770000000     0.009310000000    -0.396812   
O318     O      0.708380000000     0.556230000000     0.513320000000    -0.394468   
O319     O      0.712520000000     0.011050000000     0.464090000000    -0.392471   
O320     O      0.716200000000     0.005650000000     0.058520000000    -0.385382   
O321     O      0.502350000000     0.719520000000     0.034830000000    -0.39527    
O322     O      0.507600000000     0.721800000000     0.440970000000    -0.384439   
O323     O      0.552550000000     0.719260000000     0.490720000000    -0.393275   
O324     O      0.957530000000     0.723110000000     0.985350000000    -0.345475   
O325     O      0.960240000000     0.774290000000     0.996150000000    -0.390296   
O326     O      0.553800000000     0.770940000000     0.482120000000    -0.356951   
O327     O      0.999900000000     0.773620000000     0.442300000000    -0.368032   
O328     O      0.013990000000     0.770610000000     0.035890000000    -0.390506   
O329     O      0.756060000000     0.710350000000     0.027560000000    -0.392058   
O330     O      0.752320000000     0.805190000000     0.029740000000    -0.39132    
O331     O      0.706540000000     0.755590000000     0.028420000000    -0.386942   
O332     O      0.801620000000     0.759210000000     0.028320000000    -0.387032   
O333     O      0.800460000000     0.750570000000     0.477120000000    -0.386287   
O334     O      0.707040000000     0.766700000000     0.477690000000    -0.387874   
O335     O      0.761790000000     0.806340000000     0.478730000000    -0.382577   
O336     O      0.745910000000     0.711620000000     0.476630000000    -0.384772   
O337     O      0.501530000000     0.546970000000     0.780830000000    -0.393832   
O338     O      0.505840000000     0.952290000000     0.771990000000    -0.393599   
O339     O      0.550700000000     0.000160000000     0.774960000000    -0.402257   
O340     O      0.956280000000     0.496320000000     0.777290000000    -0.352191   
O341     O      0.954980000000     0.507990000000     0.726650000000    -0.390627   
O342     O      0.549120000000     0.002570000000     0.723000000000    -0.354065   
O343     O      0.998390000000     0.957300000000     0.720780000000    -0.341035   
O344     O      0.006230000000     0.551760000000     0.729250000000    -0.359185   
O345     O      0.526190000000     0.702110000000     0.734420000000    -0.392938   
O346     O      0.533770000000     0.796720000000     0.739440000000    -0.382323   
O347     O      0.531860000000     0.746770000000     0.784050000000    -0.399147   
O348     O      0.528250000000     0.752820000000     0.690180000000    -0.359891   
O349     O      0.976580000000     0.746420000000     0.692340000000    -0.390385   
O350     O      0.981660000000     0.760570000000     0.785740000000    -0.347084   
O351     O      0.982410000000     0.800060000000     0.731330000000    -0.374333   
O352     O      0.975650000000     0.706110000000     0.746290000000    -0.391208   
O353     O      0.797730000000     0.981340000000     0.765400000000    -0.382593   
O354     O      0.703020000000     0.985060000000     0.763930000000    -0.38227    
O355     O      0.750020000000     0.977570000000     0.716710000000    -0.357587   
O356     O      0.748440000000     0.987690000000     0.810290000000    -0.397889   
O357     O      0.751580000000     0.539790000000     0.804940000000    -0.352613   
O358     O      0.755540000000     0.529420000000     0.710730000000    -0.395896   
O359     O      0.705700000000     0.536730000000     0.755030000000    -0.389941   
O360     O      0.799660000000     0.533360000000     0.758880000000    -0.392226   
O361     O      0.768150000000     0.509790000000     0.556230000000    -0.381699   
O362     O      0.762980000000     0.524060000000     0.963080000000    -0.383384   
O363     O      0.760010000000     0.562280000000     0.017540000000    -0.366365   
O364     O      0.770950000000     0.968580000000     0.501630000000    -0.345949   
O365     O      0.719890000000     0.961770000000     0.509310000000    -0.396654   
O366     O      0.708380000000     0.556230000000     0.013320000000    -0.394862   
O367     O      0.712520000000     0.011050000000     0.964090000000    -0.391137   
O368     O      0.716200000000     0.005650000000     0.558520000000    -0.385568   
O369     O      0.502350000000     0.719520000000     0.534830000000    -0.393947   
O370     O      0.507600000000     0.721800000000     0.940970000000    -0.384645   
O371     O      0.552550000000     0.719260000000     0.990720000000    -0.392803   
O372     O      0.957530000000     0.723110000000     0.485350000000    -0.345674   
O373     O      0.960240000000     0.774290000000     0.496150000000    -0.390768   
O374     O      0.553800000000     0.770940000000     0.982120000000    -0.356769   
O375     O      0.999900000000     0.773620000000     0.942300000000    -0.368232   
O376     O      0.013990000000     0.770610000000     0.535890000000    -0.389217   
O377     O      0.756060000000     0.710350000000     0.527550000000    -0.392695   
O378     O      0.752320000000     0.805190000000     0.529750000000    -0.391639   
O379     O      0.706540000000     0.755590000000     0.528420000000    -0.387395   
O380     O      0.801620000000     0.759210000000     0.528320000000    -0.387459   
O381     O      0.800460000000     0.750570000000     0.977120000000    -0.384692   
O382     O      0.707040000000     0.766700000000     0.977690000000    -0.38627    
O383     O      0.761790000000     0.806340000000     0.978730000000    -0.381004   
O384     O      0.745910000000     0.711620000000     0.976630000000    -0.383098   


