data_structure

_audit_creation_method RASPA-1.0
_audit_creation_date 2023-5-22
_audit_author_name 'Poobodin Mano'

_cell_length_a    31.8211
_cell_length_b    31.9538
_cell_length_c    43.174
_cell_angle_alpha 90
_cell_angle_beta  90
_cell_angle_gamma 90
_cell_volume      43899.5

_symmetry_cell_setting          triclinic
_symmetry_space_group_name_Hall 'P 1'
_symmetry_space_group_name_H-M  'P 1'
_symmetry_Int_Tables_number     1

_symmetry_equiv_pos_as_xyz 'x,y,z'

loop_
_atom_site_label
_atom_site_type_symbol
_atom_site_fract_x
_atom_site_fract_y
_atom_site_fract_z
_atom_site_charge
C1       C      0.354610000000     0.017170000000     0.450170000000     0.398261   
C2       C      0.352650000000     0.017500000000     0.073390000000     0.398905   
C3       C      0.268510000000     0.018080000000     0.511370000000     0.399584   
C4       C      0.435500000000     0.016860000000     0.012170000000     0.400626   
C5       C      0.341770000000     0.016510000000     0.199840000000     0.398708   
C6       C      0.346950000000     0.017250000000     0.323000000000     0.398033   
C7       C      0.430000000000     0.017380000000     0.259170000000     0.395776   
C8       C      0.262640000000     0.016110000000     0.263410000000     0.399559   
C9       C      0.991800000000     0.670200000000     0.076580000000     0.39715    
C10      C      0.996380000000     0.673470000000     0.453060000000     0.396871   
C11      C      0.993830000000     0.754070000000     0.515730000000     0.40041    
C12      C      0.994360000000     0.587530000000     0.514300000000     0.398068   
C13      C      0.990470000000     0.650160000000     0.202470000000     0.397194   
C14      C      0.996140000000     0.659270000000     0.325810000000     0.396804   
C15      C      0.991530000000     0.572430000000     0.267710000000     0.399566   
C16      C      0.995350000000     0.738570000000     0.259640000000     0.398998   
C17      C      0.674940000000     0.016320000000     0.040600000000     0.398487   
C18      C      0.679610000000     0.016950000000     0.417480000000     0.399198   
C19      C      0.595600000000     0.016590000000     0.977670000000     0.400398   
C20      C      0.762590000000     0.016800000000     0.480460000000     0.399221   
C21      C      0.688080000000     0.016270000000     0.290870000000     0.399211   
C22      C      0.680450000000     0.016620000000     0.167830000000     0.398463   
C23      C      0.598520000000     0.017160000000     0.232470000000     0.395881   
C24      C      0.765840000000     0.015620000000     0.226520000000     0.399273   
C25      C      0.014790000000     0.085750000000     0.495100000000     0.401059   
C26      C      0.016330000000     0.919560000000     0.498230000000     0.401346   
C27      C      0.098940000000     0.002940000000     0.498040000000     0.400357   
C28      C      0.931920000000     0.001590000000     0.495250000000     0.398044   
C29      C      0.015470000000     0.072220000000     0.237140000000     0.3994     
C30      C      0.013500000000     0.908230000000     0.255560000000     0.39886    
C31      C      0.097330000000     0.989600000000     0.246880000000     0.399845   
C32      C      0.930940000000     0.991240000000     0.245810000000     0.402105   
C33      C      0.996230000000     0.326890000000     0.048700000000     0.396097   
C34      C      0.990750000000     0.342840000000     0.425650000000     0.39691    
C35      C      0.994060000000     0.418610000000     0.492220000000     0.397702   
C36      C      0.992730000000     0.252600000000     0.481850000000     0.399996   
C37      C      0.997300000000     0.328290000000     0.176500000000     0.396084   
C38      C      0.992780000000     0.322410000000     0.300070000000     0.396628   
C39      C      0.992470000000     0.408000000000     0.240110000000     0.399381   
C40      C      0.998070000000     0.241630000000     0.237540000000     0.39925    
C41      C      0.952300000000     0.315740000000     0.349190000000    -0.0126048  
C42      C      0.031080000000     0.320890000000     0.350040000000    -0.011027   
C43      C      0.949940000000     0.346590000000     0.376470000000    -0.0123387  
C44      C      0.028380000000     0.353260000000     0.375940000000    -0.0111545  
C45      C      0.958990000000     0.340200000000     0.127440000000    -0.0120962  
C46      C      0.037930000000     0.337010000000     0.127720000000    -0.0118239  
C47      C      0.958140000000     0.314240000000     0.097820000000    -0.0117637  
C48      C      0.036890000000     0.312980000000     0.096870000000    -0.0116603  
C49      C      0.048330000000     0.140100000000     0.248870000000    -0.0107289  
C50      C      0.990980000000     0.134860000000     0.208900000000    -0.0137644  
C51      C      0.027750000000     0.179190000000     0.262270000000    -0.0101203  
C52      C      0.968730000000     0.172660000000     0.223480000000    -0.0101847  
C53      C      0.988670000000     0.152160000000     0.016460000000    -0.011507   
C54      C      0.042440000000     0.151450000000     0.973400000000    -0.0111083  
C55      C      0.963370000000     0.185170000000     0.498800000000    -0.010407   
C56      C      0.019640000000     0.187910000000     0.457750000000    -0.00820677 
C57      C      0.863950000000     0.961280000000     0.227410000000    -0.0109659  
C58      C      0.864630000000     0.023320000000     0.263520000000    -0.0130115  
C59      C      0.831200000000     0.983100000000     0.207260000000    -0.00882353 
C60      C      0.833800000000     0.046220000000     0.242100000000    -0.0110888  
C61      C      0.670610000000     0.977900000000     0.368430000000    -0.0108178  
C62      C      0.673450000000     0.056640000000     0.368430000000    -0.0119477  
C63      C      0.698580000000     0.976940000000     0.339730000000    -0.0104291  
C64      C      0.701090000000     0.055350000000     0.339530000000    -0.0115981  
C65      C      0.688110000000     0.055990000000     0.118840000000    -0.0118067  
C66      C      0.689680000000     0.977230000000     0.118990000000    -0.0106795  
C67      C      0.661790000000     0.055120000000     0.089290000000    -0.0118088  
C68      C      0.663760000000     0.976670000000     0.089220000000    -0.0106228  
C69      C      0.828990000000     0.990600000000     0.458760000000    -0.00764606 
C70      C      0.828820000000     0.047210000000     0.999520000000    -0.0123284  
C71      C      0.867280000000     0.970540000000     0.474180000000    -0.0100837  
C72      C      0.864080000000     0.024450000000     0.016810000000    -0.00939181 
C73      C      0.030070000000     0.505080000000     0.269560000000    -0.0106349  
C74      C      0.951410000000     0.505580000000     0.268900000000    -0.011947   
C75      C      0.030550000000     0.475610000000     0.241760000000    -0.0110366  
C76      C      0.951570000000     0.474320000000     0.241930000000    -0.0121364  
C77      C      0.044810000000     0.839480000000     0.244170000000    -0.0111921  
C78      C      0.987860000000     0.846560000000     0.284370000000    -0.0137862  
C79      C      0.024270000000     0.799450000000     0.232190000000    -0.0100768  
C80      C      0.965440000000     0.808220000000     0.270800000000    -0.0101967  
C81      C      0.033850000000     0.520520000000     0.016590000000    -0.010615   
C82      C      0.955090000000     0.520470000000     0.016800000000    -0.0112697  
C83      C      0.033880000000     0.485400000000     0.492470000000    -0.011358   
C84      C      0.954860000000     0.485700000000     0.492460000000    -0.0120833  
C85      C      0.958340000000     0.652680000000     0.375600000000    -0.0120747  
C86      C      0.037320000000     0.655820000000     0.374660000000    -0.0117547  
C87      C      0.957850000000     0.681630000000     0.403620000000    -0.0116588  
C88      C      0.036590000000     0.682860000000     0.404110000000    -0.0115487  
C89      C      0.030270000000     0.671480000000     0.126420000000    -0.0110304  
C90      C      0.951390000000     0.676150000000     0.125720000000    -0.0125543  
C91      C      0.027870000000     0.639730000000     0.152720000000    -0.0110575  
C92      C      0.949410000000     0.646090000000     0.153450000000    -0.0123044  
C93      C      0.991910000000     0.852260000000     0.477200000000    -0.0129327  
C94      C      0.044470000000     0.854760000000     0.020970000000    -0.00973854 
C95      C      0.965750000000     0.820350000000     0.495400000000    -0.010469   
C96      C      0.020520000000     0.820040000000     0.037680000000    -0.00959108 
C97      C      0.531250000000     0.056790000000     0.233390000000    -0.0124061  
C98      C      0.530920000000     0.978250000000     0.233310000000    -0.0111297  
C99      C      0.497410000000     0.056830000000     0.258710000000    -0.0123666  
C100     C      0.497530000000     0.978340000000     0.258840000000    -0.0109622  
C101     C      0.197360000000     0.987730000000     0.285740000000    -0.00628124 
C102     C      0.195080000000     0.043120000000     0.244150000000    -0.00988179 
C103     C      0.163630000000     0.962810000000     0.268650000000    -0.0114357  
C104     C      0.163940000000     0.016330000000     0.225640000000    -0.0151038  
C105     C      0.528450000000     0.055850000000     0.479730000000    -0.0116166  
C106     C      0.528340000000     0.977430000000     0.479600000000    -0.0102868  
C107     C      0.502810000000     0.055820000000     0.009700000000    -0.0110278  
C108     C      0.502510000000     0.977340000000     0.009470000000    -0.00974911 
C109     C      0.339220000000     0.056760000000     0.371970000000    -0.0118226  
C110     C      0.337560000000     0.978080000000     0.371960000000    -0.0107039  
C111     C      0.366140000000     0.056010000000     0.401260000000    -0.0119527  
C112     C      0.364190000000     0.977490000000     0.401390000000    -0.0106703  
C113     C      0.332910000000     0.977170000000     0.150790000000    -0.0104908  
C114     C      0.330290000000     0.055630000000     0.150990000000    -0.0117279  
C115     C      0.361600000000     0.978290000000     0.122430000000    -0.0108614  
C116     C      0.358820000000     0.056960000000     0.122570000000    -0.0119114  
C117     C      0.163650000000     0.972800000000     0.019530000000    -0.00951843 
C118     C      0.166540000000     0.025360000000     0.475920000000    -0.010484   
C119     C      0.202410000000     0.992990000000     0.034190000000    -0.00764798 
C120     C      0.202180000000     0.048420000000     0.492550000000    -0.0107524  
C121     C      0.354610000000     0.017170000000     0.950170000000     0.398367   
C122     C      0.352650000000     0.017500000000     0.573390000000     0.398891   
C123     C      0.268510000000     0.018080000000     0.011370000000     0.399657   
C124     C      0.435500000000     0.016860000000     0.512170000000     0.40048    
C125     C      0.341770000000     0.016510000000     0.699840000000     0.398781   
C126     C      0.346950000000     0.017250000000     0.823000000000     0.398075   
C127     C      0.430000000000     0.017380000000     0.759170000000     0.395774   
C128     C      0.262640000000     0.016110000000     0.763410000000     0.399559   
C129     C      0.991800000000     0.670200000000     0.576580000000     0.39711    
C130     C      0.996380000000     0.673470000000     0.953060000000     0.396948   
C131     C      0.993830000000     0.754070000000     0.015730000000     0.40048    
C132     C      0.994360000000     0.587530000000     0.014290000000     0.3982     
C133     C      0.990470000000     0.650160000000     0.702470000000     0.397275   
C134     C      0.996140000000     0.659270000000     0.825810000000     0.396799   
C135     C      0.991530000000     0.572430000000     0.767710000000     0.399562   
C136     C      0.995350000000     0.738570000000     0.759640000000     0.398994   
C137     C      0.674940000000     0.016320000000     0.540600000000     0.398552   
C138     C      0.679610000000     0.016950000000     0.917480000000     0.399168   
C139     C      0.595600000000     0.016590000000     0.477670000000     0.400521   
C140     C      0.762590000000     0.016800000000     0.980460000000     0.399067   
C141     C      0.688080000000     0.016270000000     0.790870000000     0.399184   
C142     C      0.680450000000     0.016620000000     0.667830000000     0.398483   
C143     C      0.598520000000     0.017160000000     0.732470000000     0.395877   
C144     C      0.765840000000     0.015620000000     0.726520000000     0.399265   
C145     C      0.014790000000     0.085750000000     0.995100000000     0.400295   
C146     C      0.016330000000     0.919560000000     0.998230000000     0.400553   
C147     C      0.098940000000     0.002940000000     0.998040000000     0.399562   
C148     C      0.931920000000     0.001590000000     0.995250000000     0.397283   
C149     C      0.015470000000     0.072220000000     0.737140000000     0.399401   
C150     C      0.013500000000     0.908230000000     0.755560000000     0.398861   
C151     C      0.097330000000     0.989600000000     0.746880000000     0.399846   
C152     C      0.930940000000     0.991240000000     0.745810000000     0.40211    
C153     C      0.996230000000     0.326890000000     0.548700000000     0.396165   
C154     C      0.990750000000     0.342840000000     0.925650000000     0.396881   
C155     C      0.994060000000     0.418610000000     0.992220000000     0.397588   
C156     C      0.992730000000     0.252600000000     0.981850000000     0.399844   
C157     C      0.997300000000     0.328290000000     0.676500000000     0.396081   
C158     C      0.992780000000     0.322410000000     0.800070000000     0.396629   
C159     C      0.992470000000     0.408000000000     0.740110000000     0.399378   
C160     C      0.998070000000     0.241630000000     0.737540000000     0.399259   
C161     C      0.952300000000     0.315740000000     0.849190000000    -0.0126044  
C162     C      0.031080000000     0.320890000000     0.850040000000    -0.011027   
C163     C      0.949940000000     0.346590000000     0.876470000000    -0.0123356  
C164     C      0.028380000000     0.353260000000     0.875940000000    -0.0111532  
C165     C      0.958990000000     0.340200000000     0.627440000000    -0.0120973  
C166     C      0.037930000000     0.337010000000     0.627720000000    -0.0118345  
C167     C      0.958140000000     0.314240000000     0.597820000000    -0.0117603  
C168     C      0.036890000000     0.312980000000     0.596870000000    -0.0116492  
C169     C      0.048330000000     0.140100000000     0.748870000000    -0.0107084  
C170     C      0.990980000000     0.134860000000     0.708900000000    -0.0137848  
C171     C      0.027750000000     0.179190000000     0.762270000000    -0.0101682  
C172     C      0.968730000000     0.172660000000     0.723480000000    -0.0101122  
C173     C      0.988670000000     0.152160000000     0.516460000000    -0.0128508  
C174     C      0.042440000000     0.151450000000     0.473400000000    -0.0111425  
C175     C      0.963370000000     0.185170000000     0.998800000000    -0.0119454  
C176     C      0.019640000000     0.187910000000     0.957750000000    -0.00830677 
C177     C      0.863950000000     0.961280000000     0.727410000000    -0.0109154  
C178     C      0.864630000000     0.023320000000     0.763520000000    -0.0130077  
C179     C      0.831200000000     0.983100000000     0.707250000000    -0.00894955 
C180     C      0.833800000000     0.046220000000     0.742100000000    -0.0110904  
C181     C      0.670610000000     0.977900000000     0.868430000000    -0.0108156  
C182     C      0.673450000000     0.056640000000     0.868430000000    -0.0119441  
C183     C      0.698580000000     0.976940000000     0.839730000000    -0.0104294  
C184     C      0.701090000000     0.055350000000     0.839530000000    -0.0116006  
C185     C      0.688110000000     0.055990000000     0.618840000000    -0.0118068  
C186     C      0.689680000000     0.977230000000     0.618990000000    -0.0106777  
C187     C      0.661790000000     0.055120000000     0.589290000000    -0.011805   
C188     C      0.663760000000     0.976670000000     0.589220000000    -0.0106149  
C189     C      0.828990000000     0.990600000000     0.958760000000    -0.00771793 
C190     C      0.828820000000     0.047210000000     0.499520000000    -0.0107943  
C191     C      0.867280000000     0.970540000000     0.974170000000    -0.0101153  
C192     C      0.864080000000     0.024450000000     0.516810000000    -0.0107262  
C193     C      0.030070000000     0.505080000000     0.769560000000    -0.0106317  
C194     C      0.951410000000     0.505580000000     0.768900000000    -0.0119246  
C195     C      0.030550000000     0.475610000000     0.741760000000    -0.0110368  
C196     C      0.951570000000     0.474320000000     0.741920000000    -0.0122051  
C197     C      0.044810000000     0.839480000000     0.744170000000    -0.01119    
C198     C      0.987860000000     0.846560000000     0.784370000000    -0.0137833  
C199     C      0.024270000000     0.799450000000     0.732190000000    -0.0100761  
C200     C      0.965440000000     0.808220000000     0.770800000000    -0.0101961  
C201     C      0.033850000000     0.520520000000     0.516590000000    -0.0112841  
C202     C      0.955090000000     0.520470000000     0.516800000000    -0.0119394  
C203     C      0.033880000000     0.485400000000     0.992470000000    -0.0120253  
C204     C      0.954860000000     0.485700000000     0.992460000000    -0.0127467  
C205     C      0.958340000000     0.652680000000     0.875600000000    -0.0120893  
C206     C      0.037320000000     0.655820000000     0.874660000000    -0.0117584  
C207     C      0.957850000000     0.681630000000     0.903630000000    -0.0116324  
C208     C      0.036590000000     0.682860000000     0.904110000000    -0.0115466  
C209     C      0.030270000000     0.671480000000     0.626420000000    -0.0110324  
C210     C      0.951390000000     0.676150000000     0.625720000000    -0.0125554  
C211     C      0.027870000000     0.639730000000     0.652720000000    -0.0110407  
C212     C      0.949410000000     0.646090000000     0.653450000000    -0.0122953  
C213     C      0.991910000000     0.852260000000     0.977200000000    -0.0126576  
C214     C      0.044470000000     0.854760000000     0.520970000000    -0.0102323  
C215     C      0.965750000000     0.820350000000     0.995400000000    -0.0117984  
C216     C      0.020520000000     0.820040000000     0.537680000000    -0.00948213 
C217     C      0.531250000000     0.056790000000     0.733390000000    -0.0124042  
C218     C      0.530920000000     0.978250000000     0.733310000000    -0.0111265  
C219     C      0.497410000000     0.056830000000     0.758710000000    -0.0123655  
C220     C      0.497530000000     0.978340000000     0.758840000000    -0.010959   
C221     C      0.197360000000     0.987730000000     0.785740000000    -0.00627664 
C222     C      0.195080000000     0.043120000000     0.744150000000    -0.00987944 
C223     C      0.163630000000     0.962810000000     0.768650000000    -0.011435   
C224     C      0.163940000000     0.016330000000     0.725640000000    -0.015107   
C225     C      0.528450000000     0.055850000000     0.979730000000    -0.0122929  
C226     C      0.528340000000     0.977430000000     0.979600000000    -0.0109526  
C227     C      0.502810000000     0.055820000000     0.509700000000    -0.0117411  
C228     C      0.502510000000     0.977340000000     0.509470000000    -0.0104191  
C229     C      0.339220000000     0.056760000000     0.871970000000    -0.0118289  
C230     C      0.337560000000     0.978080000000     0.871960000000    -0.0107149  
C231     C      0.366140000000     0.056010000000     0.901260000000    -0.0119471  
C232     C      0.364190000000     0.977490000000     0.901390000000    -0.0106638  
C233     C      0.332910000000     0.977170000000     0.650790000000    -0.0104883  
C234     C      0.330290000000     0.055630000000     0.650990000000    -0.0117351  
C235     C      0.361600000000     0.978290000000     0.622430000000    -0.0108522  
C236     C      0.358820000000     0.056960000000     0.622560000000    -0.0118863  
C237     C      0.163650000000     0.972800000000     0.519530000000    -0.0100136  
C238     C      0.166540000000     0.025360000000     0.975920000000    -0.0102109  
C239     C      0.202410000000     0.992990000000     0.534190000000    -0.00752842 
C240     C      0.202180000000     0.048420000000     0.992550000000    -0.0120918  
Cu1      Cu     0.351760000000     0.978780000000     0.012120000000     0.847064   
Cu2      Cu     0.352280000000     0.056040000000     0.511430000000     0.843373   
Cu3      Cu     0.345760000000     0.055460000000     0.260900000000     0.839788   
Cu4      Cu     0.346360000000     0.978220000000     0.261830000000     0.843909   
Cu5      Cu     0.032860000000     0.671050000000     0.515800000000     0.840247   
Cu6      Cu     0.955370000000     0.670930000000     0.013830000000     0.840594   
Cu7      Cu     0.032050000000     0.654590000000     0.263030000000     0.844697   
Cu8      Cu     0.954590000000     0.656560000000     0.265150000000     0.83639    
Cu9      Cu     0.679030000000     0.055300000000     0.479450000000     0.843535   
Cu10     Cu     0.679100000000     0.978040000000     0.978680000000     0.846283   
Cu11     Cu     0.682780000000     0.055070000000     0.229790000000     0.840169   
Cu12     Cu     0.682050000000     0.977830000000     0.229070000000     0.844936   
Cu13     Cu     0.014530000000     0.003590000000     0.025300000000     0.844298   
Cu14     Cu     0.016350000000     0.001650000000     0.467970000000     0.840629   
Cu15     Cu     0.013900000000     0.995830000000     0.274390000000     0.84037    
Cu16     Cu     0.014420000000     0.984680000000     0.218310000000     0.83795    
Cu17     Cu     0.032210000000     0.335270000000     0.486060000000     0.838418   
Cu18     Cu     0.954750000000     0.335570000000     0.988340000000     0.839199   
Cu19     Cu     0.956370000000     0.323480000000     0.237340000000     0.834962   
Cu20     Cu     0.033820000000     0.326060000000     0.239230000000     0.845132   
Cu21     Cu     0.351760000000     0.978780000000     0.512130000000     0.846485   
Cu22     Cu     0.352280000000     0.056040000000     0.011430000000     0.844004   
Cu23     Cu     0.345760000000     0.055460000000     0.760900000000     0.839623   
Cu24     Cu     0.346360000000     0.978220000000     0.761830000000     0.844052   
Cu25     Cu     0.032860000000     0.671050000000     0.015800000000     0.84083    
Cu26     Cu     0.955370000000     0.670930000000     0.513830000000     0.839974   
Cu27     Cu     0.032050000000     0.654590000000     0.763030000000     0.8447     
Cu28     Cu     0.954590000000     0.656560000000     0.765150000000     0.836247   
Cu29     Cu     0.679030000000     0.055300000000     0.979450000000     0.842961   
Cu30     Cu     0.679100000000     0.978040000000     0.478680000000     0.846843   
Cu31     Cu     0.682780000000     0.055070000000     0.729780000000     0.840144   
Cu32     Cu     0.682050000000     0.977830000000     0.729070000000     0.844921   
Cu33     Cu     0.014530000000     0.003590000000     0.525300000000     0.843887   
Cu34     Cu     0.016350000000     0.001650000000     0.967970000000     0.839928   
Cu35     Cu     0.013900000000     0.995830000000     0.774390000000     0.840372   
Cu36     Cu     0.014420000000     0.984680000000     0.718310000000     0.837951   
Cu37     Cu     0.032210000000     0.335270000000     0.986060000000     0.837864   
Cu38     Cu     0.954750000000     0.335570000000     0.488340000000     0.839771   
Cu39     Cu     0.956370000000     0.323480000000     0.737340000000     0.834947   
Cu40     Cu     0.033820000000     0.326060000000     0.739230000000     0.845117   
H1       H      0.035260000000     0.289490000000     0.360730000000     0.0396857  
H2       H      0.951210000000     0.283430000000     0.358710000000     0.0395694  
H3       H      0.922410000000     0.338470000000     0.391120000000     0.0429117  
H4       H      0.059440000000     0.327530000000     0.335850000000     0.0428452  
H5       H      0.057390000000     0.351440000000     0.390190000000     0.0431103  
H6       H      0.027310000000     0.384890000000     0.365220000000     0.0400123  
H7       H      0.924090000000     0.320050000000     0.334350000000     0.0429494  
H8       H      0.944590000000     0.378460000000     0.366900000000     0.0390979  
H9       H      0.042880000000     0.370730000000     0.122520000000     0.0400113  
H10      H      0.957630000000     0.373860000000     0.120970000000     0.0404455  
H11      H      0.929500000000     0.322630000000     0.084470000000     0.0431009  
H12      H      0.065360000000     0.326020000000     0.141430000000     0.0428812  
H13      H      0.064860000000     0.321980000000     0.082960000000     0.0428874  
H14      H      0.039450000000     0.278990000000     0.102060000000     0.0395949  
H15      H      0.930270000000     0.332930000000     0.141060000000     0.043339   
H16      H      0.955540000000     0.280660000000     0.104330000000     0.0389897  
H17      H      0.011300000000     0.146110000000     0.189670000000     0.0423943  
H18      H      0.072710000000     0.150300000000     0.232030000000     0.0391156  
H19      H      0.052540000000     0.200870000000     0.270790000000     0.041315   
H20      H      0.967010000000     0.113180000000     0.199170000000     0.040211   
H21      H      0.951830000000     0.190330000000     0.205090000000     0.0390344  
H22      H      0.945230000000     0.161140000000     0.240540000000     0.0407692  
H23      H      0.064560000000     0.122550000000     0.267630000000     0.0407845  
H24      H      0.008710000000     0.169580000000     0.282670000000     0.0403269  
H25      H      0.068640000000     0.164640000000     0.987360000000     0.0395499  
H26      H      0.009680000000     0.168240000000     0.033260000000     0.0431692  
H27      H      0.945710000000     0.204790000000     0.015670000000     0.0402451  
H28      H      0.056630000000     0.130820000000     0.455460000000     0.0400491  
H29      H      0.042930000000     0.209140000000     0.446680000000     0.0398196  
H30      H      0.999630000000     0.174770000000     0.439010000000     0.0382865  
H31      H      0.966690000000     0.131640000000     0.029560000000     0.0388014  
H32      H      0.940430000000     0.169010000000     0.483470000000     0.0410498  
H33      H      0.846410000000     0.007100000000     0.281930000000     0.0408126  
H34      H      0.847040000000     0.940420000000     0.243830000000     0.040382   
H35      H      0.809690000000     0.959460000000     0.196940000000     0.0409173  
H36      H      0.885710000000     0.046660000000     0.274660000000     0.0411311  
H37      H      0.813990000000     0.067690000000     0.256180000000     0.0405219  
H38      H      0.852110000000     0.065190000000     0.225240000000     0.0398985  
H39      H      0.884340000000     0.941170000000     0.212700000000     0.0417122  
H40      H      0.848000000000     0.998790000000     0.187880000000     0.0401037  
H41      H      0.640250000000     0.060840000000     0.361000000000     0.0400692  
H42      H      0.637270000000     0.976220000000     0.360800000000     0.0405738  
H43      H      0.690510000000     0.948840000000     0.325770000000     0.0426306  
H44      H      0.682400000000     0.084380000000     0.382490000000     0.0430281  
H45      H      0.694850000000     0.083810000000     0.325460000000     0.0431068  
H46      H      0.734510000000     0.056510000000     0.347020000000     0.0386344  
H47      H      0.677250000000     0.949540000000     0.382510000000     0.0431562  
H48      H      0.731800000000     0.973770000000     0.347380000000     0.0394366  
H49      H      0.723460000000     0.974730000000     0.112630000000     0.0398916  
H50      H      0.721700000000     0.059720000000     0.112280000000     0.0397428  
H51      H      0.669070000000     0.083590000000     0.075510000000     0.0430458  
H52      H      0.681480000000     0.949080000000     0.132850000000     0.0431414  
H53      H      0.672760000000     0.948700000000     0.075420000000     0.0427827  
H54      H      0.630060000000     0.973350000000     0.095590000000     0.0395732  
H55      H      0.678840000000     0.083850000000     0.132670000000     0.0427722  
H56      H      0.628040000000     0.056600000000     0.095910000000     0.0391171  
H57      H      0.843000000000     0.071250000000     0.984090000000     0.041712   
H58      H      0.840440000000     0.010830000000     0.439580000000     0.0379659  
H59      H      0.888440000000     0.957380000000     0.456120000000     0.0400122  
H60      H      0.808160000000     0.063280000000     0.016590000000     0.0399127  
H61      H      0.883540000000     0.047780000000     0.029490000000     0.0382561  
H62      H      0.849830000000     0.002690000000     0.033960000000     0.0413342  
H63      H      0.809000000000     0.965820000000     0.448240000000     0.0402082  
H64      H      0.856030000000     0.943930000000     0.488550000000     0.0391547  
H65      H      0.949040000000     0.487540000000     0.290860000000     0.0391458  
H66      H      0.030960000000     0.485830000000     0.291020000000     0.0399285  
H67      H      0.059400000000     0.456080000000     0.242790000000     0.0432034  
H68      H      0.923100000000     0.525790000000     0.267130000000     0.042869   
H69      H      0.923610000000     0.453660000000     0.243900000000     0.0429251  
H70      H      0.948600000000     0.492290000000     0.219970000000     0.0398025  
H71      H      0.058860000000     0.524730000000     0.269150000000     0.0430055  
H72      H      0.032170000000     0.494830000000     0.220320000000     0.0408013  
H73      H      0.008230000000     0.836150000000     0.303820000000     0.0427847  
H74      H      0.069740000000     0.830410000000     0.260910000000     0.0394276  
H75      H      0.049050000000     0.777310000000     0.224340000000     0.0410429  
H76      H      0.963960000000     0.868690000000     0.293640000000     0.0408691  
H77      H      0.948310000000     0.791650000000     0.289630000000     0.0393085  
H78      H      0.942160000000     0.819010000000     0.253320000000     0.0408978  
H79      H      0.060420000000     0.856080000000     0.224660000000     0.041483   
H80      H      0.005060000000     0.807720000000     0.211560000000     0.0398152  
H81      H      0.953030000000     0.505730000000     0.040080000000     0.0395584  
H82      H      0.036260000000     0.506050000000     0.039950000000     0.0397236  
H83      H      0.062010000000     0.465450000000     0.496290000000     0.0429943  
H84      H      0.926650000000     0.540170000000     0.013590000000     0.0430719  
H85      H      0.926530000000     0.465950000000     0.996110000000     0.0430992  
H86      H      0.952100000000     0.500400000000     0.469210000000     0.0401622  
H87      H      0.062200000000     0.540260000000     0.513080000000     0.0429635  
H88      H      0.036870000000     0.499820000000     0.469130000000     0.0403048  
H89      H      0.042420000000     0.622720000000     0.381660000000     0.0399807  
H90      H      0.957030000000     0.619780000000     0.383960000000     0.0405529  
H91      H      0.929300000000     0.674790000000     0.417550000000     0.0430327  
H92      H      0.064580000000     0.665450000000     0.360220000000     0.0428332  
H93      H      0.064710000000     0.675290000000     0.418310000000     0.0427313  
H94      H      0.039060000000     0.716240000000     0.397050000000     0.0393965  
H95      H      0.929490000000     0.658570000000     0.361770000000     0.0432837  
H96      H      0.955340000000     0.714450000000     0.395230000000     0.0388337  
H97      H      0.949980000000     0.708720000000     0.134730000000     0.0395271  
H98      H      0.034480000000     0.703140000000     0.136660000000     0.0396468  
H99      H      0.056970000000     0.642090000000     0.166840000000     0.0428815  
H100     H      0.923200000000     0.671130000000     0.111000000000     0.0430397  
H101     H      0.921970000000     0.654510000000     0.168100000000     0.0428264  
H102     H      0.944070000000     0.613940000000     0.144410000000     0.0390373  
H103     H      0.058530000000     0.664510000000     0.112210000000     0.0430419  
H104     H      0.026910000000     0.607820000000     0.142440000000     0.0400425  
H105     H      0.070440000000     0.839980000000     0.007660000000     0.0399258  
H106     H      0.013320000000     0.835100000000     0.461290000000     0.0430071  
H107     H      0.948820000000     0.799640000000     0.478850000000     0.0389929  
H108     H      0.058950000000     0.876230000000     0.038230000000     0.0394351  
H109     H      0.043030000000     0.799380000000     0.050130000000     0.0400544  
H110     H      0.000010000000     0.834950000000     0.055380000000     0.0405249  
H111     H      0.970550000000     0.872250000000     0.463120000000     0.0387212  
H112     H      0.942170000000     0.837480000000     0.509570000000     0.0412079  
H113     H      0.514650000000     0.975880000000     0.210590000000     0.0404005  
H114     H      0.515320000000     0.059550000000     0.210560000000     0.0397647  
H115     H      0.477310000000     0.084980000000     0.255720000000     0.0429743  
H116     H      0.550850000000     0.949930000000     0.236030000000     0.0430719  
H117     H      0.477570000000     0.950030000000     0.256220000000     0.0430305  
H118     H      0.513820000000     0.976070000000     0.281570000000     0.0402663  
H119     H      0.551440000000     0.084860000000     0.236420000000     0.0430145  
H120     H      0.513350000000     0.059470000000     0.281550000000     0.0396791  
H121     H      0.177050000000     0.065620000000     0.258630000000     0.0403097  
H122     H      0.181430000000     0.007250000000     0.303540000000     0.0379569  
H123     H      0.142760000000     0.946930000000     0.285660000000     0.0410169  
H124     H      0.215230000000     0.061100000000     0.227810000000     0.0388172  
H125     H      0.143060000000     0.037200000000     0.211890000000     0.0402328  
H126     H      0.181910000000     0.996100000000     0.209400000000     0.0435107  
H127     H      0.218920000000     0.965960000000     0.298080000000     0.0395059  
H128     H      0.179650000000     0.938040000000     0.254940000000     0.040274   
H129     H      0.506220000000     0.976010000000     0.459680000000     0.0401761  
H130     H      0.506230000000     0.057420000000     0.459870000000     0.0396874  
H131     H      0.482900000000     0.084350000000     0.010490000000     0.0430988  
H132     H      0.548320000000     0.948930000000     0.478810000000     0.0428903  
H133     H      0.482350000000     0.948960000000     0.010070000000     0.0429665  
H134     H      0.524610000000     0.975540000000     0.029380000000     0.0403182  
H135     H      0.548480000000     0.084310000000     0.479010000000     0.0430114  
H136     H      0.525040000000     0.057210000000     0.029560000000     0.039782   
H137     H      0.303930000000     0.975860000000     0.378770000000     0.0396579  
H138     H      0.305750000000     0.060370000000     0.378910000000     0.0394574  
H139     H      0.358990000000     0.084440000000     0.415110000000     0.0429544  
H140     H      0.345210000000     0.949820000000     0.358060000000     0.0431166  
H141     H      0.355420000000     0.949560000000     0.415310000000     0.0427165  
H142     H      0.397720000000     0.974050000000     0.394590000000     0.0396764  
H143     H      0.348100000000     0.084630000000     0.358030000000     0.0427029  
H144     H      0.399750000000     0.057640000000     0.394280000000     0.0392252  
H145     H      0.297110000000     0.056800000000     0.142940000000     0.0386844  
H146     H      0.299900000000     0.973830000000     0.142690000000     0.0394263  
H147     H      0.355460000000     0.949940000000     0.108230000000     0.0431926  
H148     H      0.336090000000     0.084070000000     0.165170000000     0.043188   
H149     H      0.350480000000     0.084850000000     0.108460000000     0.0430189  
H150     H      0.391800000000     0.060880000000     0.130570000000     0.0400328  
H151     H      0.340800000000     0.949110000000     0.164850000000     0.0425677  
H152     H      0.394750000000     0.976730000000     0.130530000000     0.0404282  
H153     H      0.180390000000     0.003020000000     0.459010000000     0.0416687  
H154     H      0.174360000000     0.945570000000     0.505570000000     0.0393929  
H155     H      0.222450000000     0.968360000000     0.044860000000     0.0400381  
H156     H      0.146980000000     0.048410000000     0.463040000000     0.0381913  
H157     H      0.222650000000     0.063900000000     0.475060000000     0.0390077  
H158     H      0.188370000000     0.072930000000     0.007740000000     0.0425629  
H159     H      0.142670000000     0.960520000000     0.038040000000     0.0401063  
H160     H      0.191530000000     0.013850000000     0.053180000000     0.0380454  
H161     H      0.035260000000     0.289490000000     0.860730000000     0.0396752  
H162     H      0.951210000000     0.283430000000     0.858710000000     0.0395595  
H163     H      0.922410000000     0.338470000000     0.891120000000     0.0428838  
H164     H      0.059440000000     0.327530000000     0.835850000000     0.0428304  
H165     H      0.057390000000     0.351440000000     0.890190000000     0.0430836  
H166     H      0.027310000000     0.384890000000     0.865220000000     0.0399961  
H167     H      0.924090000000     0.320050000000     0.834350000000     0.0429352  
H168     H      0.944590000000     0.378460000000     0.866900000000     0.0390798  
H169     H      0.042880000000     0.370730000000     0.622530000000     0.0399716  
H170     H      0.957630000000     0.373860000000     0.620970000000     0.0404004  
H171     H      0.929500000000     0.322630000000     0.584470000000     0.0430226  
H172     H      0.065360000000     0.326020000000     0.641430000000     0.0428533  
H173     H      0.064860000000     0.321980000000     0.582960000000     0.0428015  
H174     H      0.039450000000     0.278990000000     0.602060000000     0.0395443  
H175     H      0.930270000000     0.332930000000     0.641060000000     0.0433098  
H176     H      0.955540000000     0.280660000000     0.604330000000     0.0389485  
H177     H      0.011300000000     0.146110000000     0.689670000000     0.0423886  
H178     H      0.072710000000     0.150300000000     0.732030000000     0.0391042  
H179     H      0.052540000000     0.200870000000     0.770790000000     0.041319   
H180     H      0.967010000000     0.113180000000     0.699170000000     0.0402065  
H181     H      0.951830000000     0.190330000000     0.705080000000     0.0389999  
H182     H      0.945230000000     0.161140000000     0.740540000000     0.0407459  
H183     H      0.064560000000     0.122550000000     0.767630000000     0.0407761  
H184     H      0.008710000000     0.169580000000     0.782670000000     0.0403309  
H185     H      0.068640000000     0.164640000000     0.487360000000     0.0397149  
H186     H      0.009680000000     0.168240000000     0.533260000000     0.0432815  
H187     H      0.945710000000     0.204790000000     0.515670000000     0.0394647  
H188     H      0.056630000000     0.130820000000     0.955460000000     0.0400167  
H189     H      0.042930000000     0.209140000000     0.946680000000     0.0398115  
H190     H      0.999630000000     0.174770000000     0.939010000000     0.0383041  
H191     H      0.966690000000     0.131640000000     0.529560000000     0.0389384  
H192     H      0.940430000000     0.169010000000     0.983470000000     0.0412405  
H193     H      0.846410000000     0.007100000000     0.781930000000     0.0408095  
H194     H      0.847040000000     0.940420000000     0.743830000000     0.0403649  
H195     H      0.809690000000     0.959460000000     0.696950000000     0.0409491  
H196     H      0.885710000000     0.046660000000     0.774660000000     0.0411282  
H197     H      0.813990000000     0.067690000000     0.756180000000     0.0405178  
H198     H      0.852110000000     0.065190000000     0.725240000000     0.0398918  
H199     H      0.884340000000     0.941170000000     0.712700000000     0.0416929  
H200     H      0.848000000000     0.998790000000     0.687880000000     0.0401306  
H201     H      0.640250000000     0.060840000000     0.861000000000     0.0400542  
H202     H      0.637270000000     0.976220000000     0.860800000000     0.040559   
H203     H      0.690510000000     0.948840000000     0.825770000000     0.0426174  
H204     H      0.682400000000     0.084380000000     0.882490000000     0.0430034  
H205     H      0.694850000000     0.083810000000     0.825460000000     0.0430941  
H206     H      0.734510000000     0.056510000000     0.847020000000     0.0386272  
H207     H      0.677250000000     0.949540000000     0.882510000000     0.0431311  
H208     H      0.731800000000     0.973770000000     0.847380000000     0.0394282  
H209     H      0.723460000000     0.974730000000     0.612630000000     0.0398507  
H210     H      0.721700000000     0.059720000000     0.612280000000     0.0397031  
H211     H      0.669070000000     0.083590000000     0.575510000000     0.0429646  
H212     H      0.681480000000     0.949080000000     0.632850000000     0.0431111  
H213     H      0.672760000000     0.948700000000     0.575420000000     0.0426979  
H214     H      0.630060000000     0.973350000000     0.595590000000     0.039525   
H215     H      0.678840000000     0.083850000000     0.632670000000     0.0427427  
H216     H      0.628040000000     0.056600000000     0.595910000000     0.0390683  
H217     H      0.843000000000     0.071250000000     0.484090000000     0.0415232  
H218     H      0.840440000000     0.010830000000     0.939580000000     0.0379789  
H219     H      0.888440000000     0.957380000000     0.956120000000     0.0400013  
H220     H      0.808160000000     0.063280000000     0.516590000000     0.039137   
H221     H      0.883540000000     0.047780000000     0.529490000000     0.0383885  
H222     H      0.849830000000     0.002690000000     0.533960000000     0.0414421  
H223     H      0.809000000000     0.965820000000     0.948240000000     0.040191   
H224     H      0.856030000000     0.943930000000     0.988550000000     0.039002   
H225     H      0.949040000000     0.487540000000     0.790860000000     0.0391281  
H226     H      0.030960000000     0.485830000000     0.791020000000     0.0399149  
H227     H      0.059400000000     0.456080000000     0.742790000000     0.0431875  
H228     H      0.923100000000     0.525790000000     0.767130000000     0.0428468  
H229     H      0.923610000000     0.453660000000     0.743900000000     0.0429271  
H230     H      0.948600000000     0.492290000000     0.719980000000     0.039816   
H231     H      0.058860000000     0.524730000000     0.769150000000     0.0429884  
H232     H      0.032170000000     0.494830000000     0.720320000000     0.0407873  
H233     H      0.008230000000     0.836150000000     0.803820000000     0.0427727  
H234     H      0.069740000000     0.830410000000     0.760910000000     0.0394169  
H235     H      0.049050000000     0.777310000000     0.724340000000     0.0410347  
H236     H      0.963960000000     0.868690000000     0.793640000000     0.0408624  
H237     H      0.948310000000     0.791650000000     0.789630000000     0.0392987  
H238     H      0.942160000000     0.819010000000     0.753320000000     0.0408908  
H239     H      0.060420000000     0.856080000000     0.724660000000     0.0414767  
H240     H      0.005060000000     0.807720000000     0.711560000000     0.0398098  
H241     H      0.953030000000     0.505730000000     0.540080000000     0.0395669  
H242     H      0.036260000000     0.506050000000     0.539950000000     0.0397323  
H243     H      0.062010000000     0.465450000000     0.996290000000     0.042964   
H244     H      0.926650000000     0.540170000000     0.513590000000     0.0430329  
H245     H      0.926530000000     0.465950000000     0.496110000000     0.0431275  
H246     H      0.952100000000     0.500400000000     0.969210000000     0.0401736  
H247     H      0.062200000000     0.540260000000     0.013070000000     0.0430016  
H248     H      0.036870000000     0.499820000000     0.969130000000     0.0403143  
H249     H      0.042420000000     0.622720000000     0.881660000000     0.0399375  
H250     H      0.957030000000     0.619780000000     0.883960000000     0.0405134  
H251     H      0.929300000000     0.674790000000     0.917550000000     0.0429553  
H252     H      0.064580000000     0.665450000000     0.860220000000     0.0428053  
H253     H      0.064710000000     0.675290000000     0.918310000000     0.0426512  
H254     H      0.039060000000     0.716240000000     0.897050000000     0.0393529  
H255     H      0.929490000000     0.658570000000     0.861770000000     0.0432607  
H256     H      0.955340000000     0.714450000000     0.895230000000     0.0387904  
H257     H      0.949980000000     0.708720000000     0.634730000000     0.0395126  
H258     H      0.034480000000     0.703140000000     0.636660000000     0.0396366  
H259     H      0.056970000000     0.642090000000     0.666850000000     0.0428645  
H260     H      0.923200000000     0.671130000000     0.611000000000     0.0430046  
H261     H      0.921970000000     0.654510000000     0.668100000000     0.0428133  
H262     H      0.944070000000     0.613940000000     0.644410000000     0.0390132  
H263     H      0.058530000000     0.664510000000     0.612210000000     0.0430148  
H264     H      0.026910000000     0.607820000000     0.642440000000     0.0400189  
H265     H      0.070440000000     0.839980000000     0.507660000000     0.0398163  
H266     H      0.013320000000     0.835100000000     0.961290000000     0.0428291  
H267     H      0.948820000000     0.799640000000     0.978850000000     0.0390924  
H268     H      0.058950000000     0.876230000000     0.538230000000     0.0394546  
H269     H      0.043030000000     0.799380000000     0.550130000000     0.0400039  
H270     H      0.000010000000     0.834950000000     0.555380000000     0.0404476  
H271     H      0.970550000000     0.872250000000     0.963120000000     0.038602   
H272     H      0.942170000000     0.837480000000     0.009570000000     0.0419386  
H273     H      0.514650000000     0.975880000000     0.710590000000     0.0403868  
H274     H      0.515320000000     0.059550000000     0.710560000000     0.0397494  
H275     H      0.477310000000     0.084980000000     0.755720000000     0.0429593  
H276     H      0.550850000000     0.949930000000     0.736030000000     0.0430561  
H277     H      0.477570000000     0.950030000000     0.756220000000     0.0430145  
H278     H      0.513820000000     0.976070000000     0.781570000000     0.040254   
H279     H      0.551440000000     0.084860000000     0.736420000000     0.0429989  
H280     H      0.513350000000     0.059470000000     0.781550000000     0.0396675  
H281     H      0.177050000000     0.065620000000     0.758630000000     0.0403029  
H282     H      0.181430000000     0.007250000000     0.803540000000     0.0379456  
H283     H      0.142760000000     0.946930000000     0.785660000000     0.0410067  
H284     H      0.215230000000     0.061100000000     0.727810000000     0.0388079  
H285     H      0.143060000000     0.037200000000     0.711890000000     0.0402267  
H286     H      0.181910000000     0.996100000000     0.709400000000     0.0435072  
H287     H      0.218920000000     0.965960000000     0.798080000000     0.0394914  
H288     H      0.179650000000     0.938040000000     0.754940000000     0.0402649  
H289     H      0.506220000000     0.976010000000     0.959680000000     0.0401864  
H290     H      0.506230000000     0.057420000000     0.959870000000     0.0397016  
H291     H      0.482900000000     0.084350000000     0.510490000000     0.0430773  
H292     H      0.548320000000     0.948930000000     0.978810000000     0.042879   
H293     H      0.482350000000     0.948960000000     0.510070000000     0.0429389  
H294     H      0.524610000000     0.975540000000     0.529380000000     0.0403261  
H295     H      0.548480000000     0.084310000000     0.979010000000     0.0430033  
H296     H      0.525040000000     0.057210000000     0.529550000000     0.0398034  
H297     H      0.303930000000     0.975860000000     0.878770000000     0.0396231  
H298     H      0.305750000000     0.060370000000     0.878910000000     0.0394274  
H299     H      0.358990000000     0.084440000000     0.915110000000     0.0428822  
H300     H      0.345210000000     0.949820000000     0.858060000000     0.043086   
H301     H      0.355420000000     0.949560000000     0.915310000000     0.0426382  
H302     H      0.397720000000     0.974050000000     0.894590000000     0.0396289  
H303     H      0.348100000000     0.084630000000     0.858030000000     0.0426838  
H304     H      0.399750000000     0.057640000000     0.894280000000     0.039182   
H305     H      0.297110000000     0.056800000000     0.642940000000     0.038671   
H306     H      0.299900000000     0.973830000000     0.642690000000     0.039415   
H307     H      0.355460000000     0.949940000000     0.608230000000     0.0431631  
H308     H      0.336090000000     0.084070000000     0.665170000000     0.04318    
H309     H      0.350480000000     0.084850000000     0.608460000000     0.0429792  
H310     H      0.391800000000     0.060880000000     0.630570000000     0.0400062  
H311     H      0.340800000000     0.949110000000     0.664850000000     0.0425505  
H312     H      0.394750000000     0.976730000000     0.630530000000     0.0404104  
H313     H      0.180390000000     0.003020000000     0.959010000000     0.0414963  
H314     H      0.174360000000     0.945570000000     0.005570000000     0.039506   
H315     H      0.222450000000     0.968360000000     0.544860000000     0.0399797  
H316     H      0.146980000000     0.048410000000     0.963040000000     0.0380671  
H317     H      0.222650000000     0.063900000000     0.975060000000     0.0391086  
H318     H      0.188370000000     0.072930000000     0.507740000000     0.0418312  
H319     H      0.142670000000     0.960520000000     0.538040000000     0.0401296  
H320     H      0.191530000000     0.013850000000     0.553180000000     0.0379616  
N1       N      0.989680000000     0.346680000000     0.394030000000    -0.165673   
N2       N      0.991910000000     0.320950000000     0.331810000000    -0.165744   
N3       N      0.997210000000     0.320430000000     0.080110000000    -0.165415   
N4       N      0.998070000000     0.332480000000     0.144870000000    -0.165204   
N5       N      0.999630000000     0.199120000000     0.239540000000    -0.166604   
N6       N      0.017280000000     0.114300000000     0.232400000000    -0.165497   
N7       N      0.992310000000     0.210120000000     0.479790000000    -0.167003   
N8       N      0.014300000000     0.128290000000     0.494350000000    -0.16561    
N9       N      0.808590000000     0.015130000000     0.225210000000    -0.167305   
N10      N      0.888150000000     0.992090000000     0.245430000000    -0.165599   
N11      N      0.693990000000     0.016210000000     0.322250000000    -0.166877   
N12      N      0.676910000000     0.017140000000     0.385860000000    -0.166658   
N13      N      0.669310000000     0.016060000000     0.072020000000    -0.16666    
N14      N      0.683230000000     0.016600000000     0.136200000000    -0.166521   
N15      N      0.889190000000     0.000340000000     0.494530000000    -0.166681   
N16      N      0.805360000000     0.016900000000     0.480660000000    -0.166935   
N17      N      0.991470000000     0.450790000000     0.241320000000    -0.166352   
N18      N      0.990930000000     0.529660000000     0.269120000000    -0.166525   
N19      N      0.996350000000     0.780850000000     0.255650000000    -0.166601   
N20      N      0.014110000000     0.866080000000     0.260340000000    -0.165041   
N21      N      0.994280000000     0.461460000000     0.493710000000    -0.165633   
N22      N      0.994430000000     0.544650000000     0.514880000000    -0.165788   
N23      N      0.997080000000     0.677070000000     0.421410000000    -0.16567    
N24      N      0.997250000000     0.658540000000     0.357560000000    -0.16545    
N25      N      0.989280000000     0.646560000000     0.170850000000    -0.165918   
N26      N      0.990980000000     0.670920000000     0.108320000000    -0.165772   
N27      N      0.993730000000     0.796610000000     0.515990000000    -0.166989   
N28      N      0.017010000000     0.877050000000     0.499080000000    -0.16578    
N29      N      0.473100000000     0.017540000000     0.258040000000    -0.165502   
N30      N      0.555440000000     0.017420000000     0.233990000000    -0.165477   
N31      N      0.140060000000     0.989800000000     0.247190000000    -0.164987   
N32      N      0.219940000000     0.015650000000     0.264370000000    -0.167723   
N33      N      0.478430000000     0.016660000000     0.011560000000    -0.16738    
N34      N      0.552660000000     0.016610000000     0.977800000000    -0.16727    
N35      N      0.359190000000     0.016920000000     0.418650000000    -0.16662    
N36      N      0.343910000000     0.017350000000     0.354620000000    -0.166487   
N37      N      0.355580000000     0.017570000000     0.105000000000    -0.166626   
N38      N      0.336840000000     0.016440000000     0.168370000000    -0.166838   
N39      N      0.225770000000     0.018470000000     0.511620000000    -0.167063   
N40      N      0.141650000000     0.002070000000     0.498800000000    -0.166948   
N41      N      0.989680000000     0.346680000000     0.894030000000    -0.165671   
N42      N      0.991910000000     0.320950000000     0.831810000000    -0.165745   
N43      N      0.997210000000     0.320430000000     0.580110000000    -0.165466   
N44      N      0.998070000000     0.332480000000     0.644870000000    -0.165209   
N45      N      0.999630000000     0.199120000000     0.739530000000    -0.166612   
N46      N      0.017280000000     0.114300000000     0.732400000000    -0.165498   
N47      N      0.992310000000     0.210120000000     0.979790000000    -0.166862   
N48      N      0.014300000000     0.128290000000     0.994350000000    -0.1659     
N49      N      0.808590000000     0.015130000000     0.725210000000    -0.167287   
N50      N      0.888150000000     0.992090000000     0.745430000000    -0.165605   
N51      N      0.693990000000     0.016210000000     0.822250000000    -0.166874   
N52      N      0.676910000000     0.017140000000     0.885860000000    -0.166655   
N53      N      0.669310000000     0.016060000000     0.572020000000    -0.166713   
N54      N      0.683230000000     0.016600000000     0.636200000000    -0.166532   
N55      N      0.889190000000     0.000340000000     0.994530000000    -0.166958   
N56      N      0.805360000000     0.016900000000     0.980660000000    -0.1668     
N57      N      0.991470000000     0.450790000000     0.741320000000    -0.166345   
N58      N      0.990930000000     0.529660000000     0.769120000000    -0.166531   
N59      N      0.996350000000     0.780850000000     0.755650000000    -0.166602   
N60      N      0.014110000000     0.866080000000     0.760340000000    -0.165043   
N61      N      0.994280000000     0.461460000000     0.993710000000    -0.165571   
N62      N      0.994430000000     0.544650000000     0.014880000000    -0.165844   
N63      N      0.997080000000     0.677070000000     0.921410000000    -0.165721   
N64      N      0.997250000000     0.658540000000     0.857560000000    -0.165452   
N65      N      0.989280000000     0.646560000000     0.670850000000    -0.165934   
N66      N      0.990980000000     0.670920000000     0.608320000000    -0.165771   
N67      N      0.993730000000     0.796610000000     0.015990000000    -0.16657    
N68      N      0.017010000000     0.877050000000     0.999080000000    -0.16606    
N69      N      0.473100000000     0.017540000000     0.758040000000    -0.165506   
N70      N      0.555440000000     0.017420000000     0.733990000000    -0.165481   
N71      N      0.140060000000     0.989800000000     0.747190000000    -0.164987   
N72      N      0.219940000000     0.015650000000     0.764370000000    -0.167726   
N73      N      0.478430000000     0.016660000000     0.511560000000    -0.16731    
N74      N      0.552660000000     0.016610000000     0.477800000000    -0.167343   
N75      N      0.359190000000     0.016920000000     0.918650000000    -0.166673   
N76      N      0.343910000000     0.017350000000     0.854610000000    -0.16656    
N77      N      0.355580000000     0.017570000000     0.605000000000    -0.166634   
N78      N      0.336840000000     0.016440000000     0.668370000000    -0.166848   
N79      N      0.225770000000     0.018470000000     0.011620000000    -0.166634   
N80      N      0.141650000000     0.002070000000     0.998800000000    -0.167228   
O1       O      0.351410000000     0.982480000000     0.465040000000    -0.397026   
O2       O      0.353280000000     0.982600000000     0.058780000000    -0.39946    
O3       O      0.288070000000     0.983140000000     0.013770000000    -0.396461   
O4       O      0.415320000000     0.982120000000     0.511340000000    -0.398791   
O5       O      0.415720000000     0.051820000000     0.513040000000    -0.40022    
O6       O      0.288620000000     0.052710000000     0.009000000000    -0.397946   
O7       O      0.350500000000     0.052270000000     0.058510000000    -0.397966   
O8       O      0.355020000000     0.052110000000     0.464750000000    -0.400021   
O9       O      0.344650000000     0.051450000000     0.214250000000    -0.400051   
O10      O      0.345860000000     0.051950000000     0.307980000000    -0.397909   
O11      O      0.409730000000     0.052120000000     0.260400000000    -0.395433   
O12      O      0.282020000000     0.051080000000     0.260500000000    -0.396831   
O13      O      0.282850000000     0.981500000000     0.265300000000    -0.396757   
O14      O      0.410060000000     0.982440000000     0.259130000000    -0.395511   
O15      O      0.349240000000     0.982310000000     0.308500000000    -0.398226   
O16      O      0.342310000000     0.981760000000     0.214820000000    -0.396845   
O17      O      0.027230000000     0.668370000000     0.062470000000    -0.397695   
O18      O      0.030860000000     0.674200000000     0.468560000000    -0.394459   
O19      O      0.028730000000     0.734370000000     0.518600000000    -0.396694   
O20      O      0.029310000000     0.607580000000     0.513800000000    -0.396407   
O21      O      0.959320000000     0.607450000000     0.514670000000    -0.397438   
O22      O      0.959060000000     0.734310000000     0.512440000000    -0.397885   
O23      O      0.960990000000     0.670510000000     0.467120000000    -0.398349   
O24      O      0.957350000000     0.671970000000     0.061090000000    -0.395591   
O25      O      0.025990000000     0.649080000000     0.216510000000    -0.398138   
O26      O      0.030510000000     0.659740000000     0.310170000000    -0.394634   
O27      O      0.026880000000     0.591710000000     0.267180000000    -0.39937    
O28      O      0.029670000000     0.717660000000     0.258060000000    -0.397818   
O29      O      0.960030000000     0.720060000000     0.263980000000    -0.395843   
O30      O      0.956880000000     0.592970000000     0.266630000000    -0.396766   
O31      O      0.960570000000     0.658140000000     0.311840000000    -0.397977   
O32      O      0.956200000000     0.654190000000     0.217940000000    -0.39553    
O33      O      0.675210000000     0.051290000000     0.026060000000    -0.399918   
O34      O      0.681710000000     0.051670000000     0.432420000000    -0.398252   
O35      O      0.615580000000     0.051450000000     0.477120000000    -0.400035   
O36      O      0.742640000000     0.051560000000     0.982590000000    -0.397885   
O37      O      0.742840000000     0.981990000000     0.977840000000    -0.396578   
O38      O      0.615560000000     0.981740000000     0.478670000000    -0.398937   
O39      O      0.678630000000     0.982020000000     0.432030000000    -0.399762   
O40      O      0.678340000000     0.981630000000     0.025760000000    -0.396763   
O41      O      0.685070000000     0.051190000000     0.276450000000    -0.400135   
O42      O      0.681600000000     0.051390000000     0.182750000000    -0.398131   
O43      O      0.618830000000     0.051850000000     0.231110000000    -0.3957     
O44      O      0.746470000000     0.050640000000     0.229240000000    -0.397217   
O45      O      0.745520000000     0.981010000000     0.225200000000    -0.396988   
O46      O      0.618390000000     0.982170000000     0.232270000000    -0.395532   
O47      O      0.678520000000     0.981740000000     0.182430000000    -0.398711   
O48      O      0.686870000000     0.981490000000     0.275970000000    -0.397589   
O49      O      0.012970000000     0.066860000000     0.021280000000    -0.397334   
O50      O      0.016360000000     0.940160000000     0.023710000000    -0.396896   
O51      O      0.078310000000     0.002780000000     0.023570000000    -0.397452   
O52      O      0.950890000000     0.003960000000     0.021410000000    -0.397695   
O53      O      0.952570000000     0.999970000000     0.469760000000    -0.395313   
O54      O      0.079970000000     0.003320000000     0.471830000000    -0.397807   
O55      O      0.015690000000     0.938330000000     0.471970000000    -0.396484   
O56      O      0.016880000000     0.065190000000     0.469630000000    -0.397283   
O57      O      0.022130000000     0.057460000000     0.264350000000    -0.396975   
O58      O      0.005900000000     0.932920000000     0.278310000000    -0.395237   
O59      O      0.077130000000     0.987280000000     0.272530000000    -0.396052   
O60      O      0.950730000000     0.003130000000     0.270160000000    -0.399641   
O61      O      0.951020000000     0.978780000000     0.221750000000    -0.397259   
O62      O      0.077760000000     0.992100000000     0.220970000000    -0.395524   
O63      O      0.021100000000     0.922830000000     0.228440000000    -0.395434   
O64      O      0.007800000000     0.047730000000     0.214290000000    -0.39626    
O65      O      0.030570000000     0.327480000000     0.033030000000    -0.393411   
O66      O      0.026290000000     0.342790000000     0.439680000000    -0.397085   
O67      O      0.028940000000     0.398420000000     0.491510000000    -0.395756   
O68      O      0.027740000000     0.272320000000     0.479870000000    -0.395792   
O69      O      0.958110000000     0.272250000000     0.486220000000    -0.398197   
O70      O      0.958950000000     0.398900000000     0.490970000000    -0.397613   
O71      O      0.956400000000     0.339410000000     0.441110000000    -0.394962   
O72      O      0.960730000000     0.331280000000     0.034970000000    -0.397088   
O73      O      0.961870000000     0.327400000000     0.190670000000    -0.397373   
O74      O      0.958400000000     0.320210000000     0.284540000000    -0.395025   
O75      O      0.958030000000     0.387050000000     0.239930000000    -0.3965     
O76      O      0.962480000000     0.260090000000     0.234490000000    -0.395324   
O77      O      0.032160000000     0.262720000000     0.240100000000    -0.398604   
O78      O      0.028000000000     0.389090000000     0.239280000000    -0.3998     
O79      O      0.028150000000     0.325740000000     0.286010000000    -0.397491   
O80      O      0.031840000000     0.326490000000     0.191910000000    -0.393998   
O81      O      0.351410000000     0.982480000000     0.965040000000    -0.397589   
O82      O      0.353280000000     0.982600000000     0.558780000000    -0.399475   
O83      O      0.288070000000     0.983140000000     0.513770000000    -0.396535   
O84      O      0.415320000000     0.982120000000     0.011340000000    -0.398736   
O85      O      0.415720000000     0.051820000000     0.013040000000    -0.40017    
O86      O      0.288620000000     0.052710000000     0.509000000000    -0.398097   
O87      O      0.350500000000     0.052270000000     0.558510000000    -0.397909   
O88      O      0.355020000000     0.052110000000     0.964750000000    -0.400507   
O89      O      0.344650000000     0.051450000000     0.714240000000    -0.400031   
O90      O      0.345860000000     0.051950000000     0.807980000000    -0.397896   
O91      O      0.409730000000     0.052120000000     0.760400000000    -0.395427   
O92      O      0.282020000000     0.051080000000     0.760500000000    -0.396825   
O93      O      0.282850000000     0.981500000000     0.765300000000    -0.396775   
O94      O      0.410060000000     0.982440000000     0.759130000000    -0.395531   
O95      O      0.349240000000     0.982310000000     0.808490000000    -0.398292   
O96      O      0.342310000000     0.981760000000     0.714820000000    -0.3969     
O97      O      0.027230000000     0.668370000000     0.562470000000    -0.397624   
O98      O      0.030860000000     0.674200000000     0.968560000000    -0.394936   
O99      O      0.028730000000     0.734370000000     0.018600000000    -0.396624   
O100     O      0.029310000000     0.607580000000     0.013800000000    -0.396349   
O101     O      0.959320000000     0.607450000000     0.014670000000    -0.397384   
O102     O      0.959060000000     0.734310000000     0.012440000000    -0.39773    
O103     O      0.960990000000     0.670510000000     0.967120000000    -0.398822   
O104     O      0.957350000000     0.671970000000     0.561090000000    -0.395527   
O105     O      0.025990000000     0.649080000000     0.716510000000    -0.39818    
O106     O      0.030510000000     0.659740000000     0.810170000000    -0.394644   
O107     O      0.026880000000     0.591710000000     0.767180000000    -0.39938    
O108     O      0.029670000000     0.717660000000     0.758060000000    -0.397826   
O109     O      0.960030000000     0.720060000000     0.763980000000    -0.395838   
O110     O      0.956880000000     0.592970000000     0.766630000000    -0.396764   
O111     O      0.960570000000     0.658140000000     0.811840000000    -0.397967   
O112     O      0.956200000000     0.654190000000     0.717930000000    -0.395518   
O113     O      0.675210000000     0.051290000000     0.526060000000    -0.400397   
O114     O      0.681710000000     0.051670000000     0.932420000000    -0.39818    
O115     O      0.615580000000     0.051450000000     0.977120000000    -0.400076   
O116     O      0.742640000000     0.051560000000     0.482590000000    -0.397803   
O117     O      0.742840000000     0.981990000000     0.477840000000    -0.396543   
O118     O      0.615560000000     0.981740000000     0.978670000000    -0.398993   
O119     O      0.678630000000     0.982020000000     0.932030000000    -0.399692   
O120     O      0.678340000000     0.981630000000     0.525760000000    -0.397238   
O121     O      0.685070000000     0.051190000000     0.776450000000    -0.400046   
O122     O      0.681600000000     0.051390000000     0.682750000000    -0.39823    
O123     O      0.618830000000     0.051850000000     0.731110000000    -0.395704   
O124     O      0.746470000000     0.050640000000     0.729240000000    -0.39722    
O125     O      0.745520000000     0.981010000000     0.725200000000    -0.39699    
O126     O      0.618390000000     0.982170000000     0.732270000000    -0.395537   
O127     O      0.678520000000     0.981740000000     0.682430000000    -0.398732   
O128     O      0.686870000000     0.981490000000     0.775970000000    -0.397579   
O129     O      0.012970000000     0.066860000000     0.521280000000    -0.397899   
O130     O      0.016360000000     0.940160000000     0.523710000000    -0.39745    
O131     O      0.078310000000     0.002780000000     0.523570000000    -0.398019   
O132     O      0.950890000000     0.003960000000     0.521410000000    -0.398263   
O133     O      0.952570000000     0.999970000000     0.969760000000    -0.395145   
O134     O      0.079970000000     0.003320000000     0.971830000000    -0.397652   
O135     O      0.015690000000     0.938330000000     0.971970000000    -0.396333   
O136     O      0.016880000000     0.065190000000     0.969630000000    -0.397115   
O137     O      0.022130000000     0.057460000000     0.764350000000    -0.396977   
O138     O      0.005900000000     0.932920000000     0.778310000000    -0.395241   
O139     O      0.077130000000     0.987280000000     0.772530000000    -0.396055   
O140     O      0.950730000000     0.003130000000     0.770160000000    -0.399644   
O141     O      0.951020000000     0.978780000000     0.721750000000    -0.397263   
O142     O      0.077760000000     0.992100000000     0.720970000000    -0.395526   
O143     O      0.021100000000     0.922830000000     0.728440000000    -0.395436   
O144     O      0.007800000000     0.047730000000     0.714290000000    -0.396265   
O145     O      0.030570000000     0.327480000000     0.533030000000    -0.393889   
O146     O      0.026290000000     0.342790000000     0.939680000000    -0.397018   
O147     O      0.028940000000     0.398420000000     0.991510000000    -0.395813   
O148     O      0.027740000000     0.272320000000     0.979870000000    -0.395825   
O149     O      0.958110000000     0.272250000000     0.986220000000    -0.398284   
O150     O      0.958950000000     0.398900000000     0.990970000000    -0.397658   
O151     O      0.956400000000     0.339410000000     0.941110000000    -0.394895   
O152     O      0.960730000000     0.331280000000     0.534970000000    -0.397561   
O153     O      0.961870000000     0.327400000000     0.690670000000    -0.397383   
O154     O      0.958400000000     0.320210000000     0.784540000000    -0.39503    
O155     O      0.958030000000     0.387050000000     0.739930000000    -0.396507   
O156     O      0.962480000000     0.260090000000     0.734490000000    -0.39533    
O157     O      0.032160000000     0.262720000000     0.740100000000    -0.398611   
O158     O      0.028000000000     0.389090000000     0.739280000000    -0.399807   
O159     O      0.028150000000     0.325740000000     0.786010000000    -0.397497   
O160     O      0.031840000000     0.326490000000     0.691910000000    -0.394007   


