data_structure

_audit_creation_method RASPA-1.0
_audit_creation_date 2023-5-22
_audit_author_name 'Poobodin Mano'

_cell_length_a    28.0779
_cell_length_b    27.6396
_cell_length_c    57.6329
_cell_angle_alpha 90
_cell_angle_beta  90
_cell_angle_gamma 90
_cell_volume      44726.7

_symmetry_cell_setting          triclinic
_symmetry_space_group_name_Hall 'P 1'
_symmetry_space_group_name_H-M  'P 1'
_symmetry_Int_Tables_number     1

_symmetry_equiv_pos_as_xyz 'x,y,z'

loop_
_atom_site_label
_atom_site_type_symbol
_atom_site_fract_x
_atom_site_fract_y
_atom_site_fract_z
_atom_site_charge
C1       C      0.008120000000     0.086460000000     0.175610000000     0.402196   
C2       C      0.021510000000     0.003990000000     0.092330000000     0.400209   
C3       C      0.016570000000     0.133510000000     0.114470000000     0.403183   
C4       C      0.013300000000     0.959540000000     0.154040000000     0.402595   
C5       C      0.021120000000     0.504080000000     0.107890000000     0.399697   
C6       C      0.009180000000     0.562880000000     0.195810000000     0.400456   
C7       C      0.017910000000     0.441420000000     0.165660000000     0.40285    
C8       C      0.012740000000     0.624660000000     0.137350000000     0.402922   
C9       C      0.521540000000     0.037830000000     0.224110000000     0.401265   
C10      C      0.531310000000     0.043760000000     0.131890000000     0.402085   
C11      C      0.527650000000     0.136140000000     0.178670000000     0.399119   
C12      C      0.525320000000     0.943340000000     0.176390000000     0.401624   
C13      C      0.536830000000     0.572280000000     0.160430000000     0.401493   
C14      C      0.538900000000     0.524610000000     0.070920000000     0.401521   
C15      C      0.540480000000     0.643320000000     0.104710000000     0.402436   
C16      C      0.534720000000     0.456560000000     0.127540000000     0.399486   
C17      C      0.018320000000     0.989820000000     0.931320000000     0.399157   
C18      C      0.997860000000     0.047700000000     0.843630000000     0.401164   
C19      C      0.007190000000     0.109810000000     0.901970000000     0.403088   
C20      C      0.009640000000     0.926600000000     0.873580000000     0.40298    
C21      C      0.019430000000     0.489990000000     0.947240000000     0.400813   
C22      C      0.007080000000     0.571230000000     0.863650000000     0.400657   
C23      C      0.014830000000     0.619120000000     0.924750000000     0.403413   
C24      C      0.011730000000     0.444730000000     0.885640000000     0.402989   
C25      C      0.552370000000     0.990240000000     0.968320000000     0.402725   
C26      C      0.574130000000     0.038190000000     0.879540000000     0.402586   
C27      C      0.557010000000     0.921610000000     0.912860000000     0.40124    
C28      C      0.568730000000     0.108450000000     0.935120000000     0.401752   
C29      C      0.555560000000     0.535600000000     0.903570000000     0.401336   
C30      C      0.566410000000     0.495350000000     0.813310000000     0.400274   
C31      C      0.556720000000     0.608180000000     0.848540000000     0.401951   
C32      C      0.565760000000     0.419860000000     0.868240000000     0.400445   
C33      C      0.039510000000     0.032760000000     0.335030000000     0.402197   
C34      C      0.987280000000     0.032380000000     0.423810000000     0.402179   
C35      C      0.922800000000     0.038190000000     0.366780000000     0.401162   
C36      C      0.105380000000     0.026150000000     0.391650000000     0.399792   
C37      C      0.055070000000     0.568800000000     0.360750000000     0.400221   
C38      C      0.094060000000     0.561750000000     0.451150000000     0.401767   
C39      C      0.982150000000     0.572500000000     0.416020000000     0.404599   
C40      C      0.166860000000     0.559440000000     0.396490000000     0.40146    
C41      C      0.494110000000     0.011870000000     0.390300000000     0.401166   
C42      C      0.539430000000     0.029280000000     0.479690000000     0.401622   
C43      C      0.424410000000     0.014030000000     0.446420000000     0.40111    
C44      C      0.608220000000     0.028070000000     0.424090000000     0.400261   
C45      C      0.572890000000     0.597770000000     0.322060000000     0.401812   
C46      C      0.607790000000     0.585060000000     0.412660000000     0.40229    
C47      C      0.497920000000     0.577230000000     0.375410000000     0.401738   
C48      C      0.682310000000     0.603920000000     0.358590000000     0.40435    
C49      C      0.020210000000     0.051060000000     0.676940000000     0.400238   
C50      C      0.047560000000     0.044010000000     0.585520000000     0.401881   
C51      C      0.126790000000     0.041670000000     0.637550000000     0.402114   
C52      C      0.939510000000     0.054240000000     0.623950000000     0.401674   
C53      C      0.027970000000     0.569410000000     0.612220000000     0.401153   
C54      C      0.006280000000     0.601780000000     0.702590000000     0.401133   
C55      C      0.922910000000     0.575940000000     0.653330000000     0.401237   
C56      C      0.111020000000     0.592930000000     0.661020000000     0.402196   
C57      C      0.547290000000     0.071720000000     0.732970000000     0.402402   
C58      C      0.501120000000     0.050060000000     0.643970000000     0.402006   
C59      C      0.433000000000     0.056830000000     0.700040000000     0.403088   
C60      C      0.617010000000     0.064180000000     0.677710000000     0.400868   
C61      C      0.557990000000     0.506000000000     0.649180000000     0.400334   
C62      C      0.503980000000     0.558840000000     0.564340000000     0.401778   
C63      C      0.440730000000     0.536420000000     0.620960000000     0.401578   
C64      C      0.620790000000     0.530710000000     0.592660000000     0.402362   
C65      C      0.843140000000     0.612480000000     0.646800000000     0.0130718  
C66      C      0.696950000000     0.486980000000     0.586700000000     0.0126039  
C67      C      0.692220000000     0.574620000000     0.579170000000     0.0162226  
C68      C      0.734310000000     0.493770000000     0.605970000000    -0.0990129  
C69      C      0.815650000000     0.604450000000     0.624180000000    -0.0999191  
C70      C      0.726700000000     0.587960000000     0.598550000000    -0.0995396  
C71      C      0.794420000000     0.553510000000     0.621900000000     0.016942   
C72      C      0.755180000000     0.545090000000     0.608090000000     0.0170019  
C73      C      0.850470000000     0.524320000000     0.653820000000     0.0135161  
C74      C      0.824110000000     0.511550000000     0.631420000000    -0.100236   
C75      C      0.188680000000     0.571010000000     0.678420000000     0.0135024  
C76      C      0.356580000000     0.518990000000     0.612960000000     0.0131501  
C77      C      0.381900000000     0.563550000000     0.649650000000     0.013067   
C78      C      0.311410000000     0.550200000000     0.615010000000    -0.101951   
C79      C      0.226320000000     0.538810000000     0.666900000000    -0.100839   
C80      C      0.333210000000     0.546390000000     0.658710000000    -0.101968   
C81      C      0.249320000000     0.562570000000     0.645850000000     0.0180526  
C82      C      0.295440000000     0.553190000000     0.640150000000     0.0168609  
C83      C      0.184210000000     0.623440000000     0.642830000000     0.0130502  
C84      C      0.216260000000     0.588660000000     0.629220000000    -0.101408   
C85      C      0.694630000000     0.022120000000     0.675030000000     0.0131622  
C86      C      0.867250000000     0.103830000000     0.616250000000     0.0130355  
C87      C      0.862070000000     0.014560000000     0.615670000000     0.0135786  
C88      C      0.825040000000     0.108370000000     0.633030000000    -0.0994625  
C89      C      0.725500000000     0.016980000000     0.653420000000    -0.100916   
C90      C      0.822130000000     0.013220000000     0.633610000000    -0.0997979  
C91      C      0.752860000000     0.063260000000     0.647830000000     0.017064   
C92      C      0.796730000000     0.061690000000     0.637060000000     0.0167319  
C93      C      0.690880000000     0.111740000000     0.671060000000     0.0121464  
C94      C      0.724990000000     0.110620000000     0.650230000000    -0.100321   
C95      C      0.205720000000     0.081680000000     0.637890000000     0.0139957  
C96      C      0.360500000000     0.009560000000     0.710130000000     0.0132956  
C97      C      0.356140000000     0.098390000000     0.707120000000     0.0149183  
C98      C      0.322680000000     0.002080000000     0.691250000000    -0.100084   
C99      C      0.231950000000     0.090420000000     0.660640000000    -0.100108   
C100     C      0.320840000000     0.097320000000     0.687030000000    -0.0996663  
C101     C      0.256660000000     0.044840000000     0.669670000000     0.0166201  
C102     C      0.296670000000     0.048150000000     0.683420000000     0.0171808  
C103     C      0.200140000000     0.993230000000     0.644600000000     0.0126157  
C104     C      0.229790000000     0.996840000000     0.666940000000    -0.0997219  
C105     C      0.621090000000     0.624670000000     0.450850000000     0.0136701  
C106     C      0.478630000000     0.534930000000     0.524890000000     0.0157423  
C107     C      0.495410000000     0.620740000000     0.533250000000     0.0123863  
C108     C      0.519940000000     0.529440000000     0.508000000000    -0.0999082  
C109     C      0.579500000000     0.627820000000     0.468010000000    -0.0995606  
C110     C      0.534250000000     0.622910000000     0.514390000000    -0.099036   
C111     C      0.565190000000     0.579230000000     0.478790000000     0.0167914  
C112     C      0.538240000000     0.577900000000     0.498770000000     0.0168481  
C113     C      0.616040000000     0.535580000000     0.448360000000     0.0134718  
C114     C      0.572540000000     0.533280000000     0.464280000000    -0.0995019  
C115     C      0.558340000000     0.080660000000     0.513850000000     0.0132458  
C116     C      0.482390000000     0.997360000000     0.610220000000     0.0133139  
C117     C      0.473800000000     0.086220000000     0.606860000000     0.0137065  
C118     C      0.513790000000     0.994480000000     0.588530000000    -0.0994889  
C119     C      0.526290000000     0.083550000000     0.535270000000    -0.0997715  
C120     C      0.505540000000     0.088760000000     0.585370000000    -0.0998102  
C121     C      0.527060000000     0.038000000000     0.550430000000     0.0167257  
C122     C      0.512710000000     0.039950000000     0.573300000000     0.0166902  
C123     C      0.565550000000     0.991580000000     0.516700000000     0.0136295  
C124     C      0.533890000000     0.989220000000     0.538270000000    -0.0997336  
C125     C      0.041560000000     0.604970000000     0.573500000000     0.012256   
C126     C      0.115870000000     0.514270000000     0.486270000000     0.0113079  
C127     C      0.104280000000     0.604110000000     0.488660000000     0.0130357  
C128     C      0.085490000000     0.506790000000     0.508240000000    -0.101337   
C129     C      0.088180000000     0.599640000000     0.560330000000    -0.101036   
C130     C      0.068930000000     0.597700000000     0.508460000000    -0.101644   
C131     C      0.085420000000     0.553530000000     0.546290000000     0.0173516  
C132     C      0.081850000000     0.552970000000     0.522550000000     0.018634   
C133     C      0.038090000000     0.514070000000     0.578400000000     0.00950686 
C134     C      0.080650000000     0.508780000000     0.561580000000    -0.100663   
C135     C      0.911210000000     0.622700000000     0.424980000000     0.0145749  
C136     C      0.759770000000     0.568700000000     0.347400000000     0.0163685  
C137     C      0.755110000000     0.655020000000     0.357850000000     0.0129335  
C138     C      0.789380000000     0.554850000000     0.368460000000    -0.100125   
C139     C      0.879210000000     0.634550000000     0.404240000000    -0.099682   
C140     C      0.789900000000     0.648400000000     0.378230000000    -0.0992236  
C141     C      0.851540000000     0.591080000000     0.394610000000     0.0170037  
C142     C      0.813720000000     0.598340000000     0.379850000000     0.0171126  
C143     C      0.902620000000     0.534660000000     0.419610000000     0.0141205  
C144     C      0.872490000000     0.540170000000     0.397720000000    -0.0994494  
C145     C      0.239140000000     0.509100000000     0.392300000000     0.0104181  
C146     C      0.418170000000     0.611700000000     0.382770000000     0.0113122  
C147     C      0.429450000000     0.521100000000     0.375390000000     0.0106567  
C148     C      0.378350000000     0.598970000000     0.399760000000    -0.101964   
C149     C      0.282300000000     0.507770000000     0.375920000000    -0.102449   
C150     C      0.388240000000     0.510660000000     0.392110000000    -0.102394   
C151     C      0.312030000000     0.552740000000     0.379750000000     0.0206872  
C152     C      0.354360000000     0.553100000000     0.391560000000     0.0201795  
C153     C      0.243510000000     0.601700000000     0.391910000000     0.0119517  
C154     C      0.284090000000     0.598000000000     0.374460000000    -0.102499   
C155     C      0.964820000000     0.988250000000     0.459790000000     0.0132852  
C156     C      0.062850000000     0.085530000000     0.548030000000     0.0135389  
C157     C      0.062720000000     0.996000000000     0.549840000000     0.0136425  
C158     C      0.026230000000     0.086410000000     0.528400000000    -0.100313   
C159     C      0.997900000000     0.987450000000     0.480930000000    -0.0985953  
C160     C      0.026290000000     0.991720000000     0.530210000000    -0.100148   
C161     C      0.002580000000     0.036050000000     0.493590000000     0.0159553  
C162     C      0.020830000000     0.037920000000     0.515780000000     0.0170629  
C163     C      0.962330000000     0.077600000000     0.458970000000     0.0139074  
C164     C      0.996400000000     0.082590000000     0.479480000000    -0.0989903  
C165     C      0.847910000000     0.997530000000     0.355000000000     0.0153523  
C166     C      0.679740000000     0.079040000000     0.417210000000     0.0122195  
C167     C      0.687110000000     0.989330000000     0.418670000000     0.0129264  
C168     C      0.709880000000     0.081760000000     0.395060000000    -0.100248   
C169     C      0.809350000000     0.991640000000     0.373390000000    -0.0995406  
C170     C      0.715450000000     0.988130000000     0.396050000000    -0.100029   
C171     C      0.782370000000     0.038370000000     0.378880000000     0.0166399  
C172     C      0.739800000000     0.036370000000     0.390790000000     0.0167432  
C173     C      0.849980000000     0.086500000000     0.358260000000     0.0127544  
C174     C      0.807630000000     0.087090000000     0.375200000000    -0.0991085  
C175     C      0.349360000000     0.053760000000     0.458700000000     0.014473   
C176     C      0.178500000000     0.976710000000     0.396860000000     0.012099   
C177     C      0.182620000000     0.066670000000     0.399080000000     0.0126362  
C178     C      0.209860000000     0.971320000000     0.418510000000    -0.100156   
C179     C      0.309180000000     0.060680000000     0.441220000000    -0.0993941  
C180     C      0.212470000000     0.064760000000     0.421230000000    -0.100463   
C181     C      0.282350000000     0.014170000000     0.435130000000     0.0164977  
C182     C      0.238780000000     0.016730000000     0.424090000000     0.0169606  
C183     C      0.351480000000     0.965050000000     0.453730000000     0.0128932  
C184     C      0.308770000000     0.965680000000     0.437040000000    -0.0989096  
C185     C      0.605560000000     0.520800000000     0.684750000000     0.0118463  
C186     C      0.527500000000     0.469450000000     0.776960000000     0.0117043  
C187     C      0.608300000000     0.511080000000     0.776530000000     0.0115156  
C188     C      0.543140000000     0.437270000000     0.756600000000    -0.102472   
C189     C      0.588540000000     0.524940000000     0.709910000000    -0.100866   
C190     C      0.623090000000     0.479570000000     0.756030000000    -0.101854   
C191     C      0.572600000000     0.476390000000     0.719650000000     0.0181367  
C192     C      0.579760000000     0.464280000000     0.742340000000     0.0189577  
C193     C      0.559920000000     0.443270000000     0.679760000000     0.0122872  
C194     C      0.539330000000     0.447440000000     0.704290000000    -0.101537   
C195     C      0.586120000000     0.040590000000     0.768540000000     0.0113338  
C196     C      0.622760000000     0.034130000000     0.843830000000     0.0130289  
C197     C      0.544620000000     0.079610000000     0.844210000000     0.0110286  
C198     C      0.647200000000     0.077520000000     0.832660000000    -0.101686   
C199     C      0.628990000000     0.064060000000     0.780770000000    -0.101279   
C200     C      0.568870000000     0.123510000000     0.832750000000    -0.101042   
C201     C      0.611350000000     0.106550000000     0.795050000000     0.0189593  
C202     C      0.611140000000     0.105850000000     0.818690000000     0.0185451  
C203     C      0.542790000000     0.120850000000     0.768760000000     0.0129607  
C204     C      0.584930000000     0.144330000000     0.781100000000    -0.101865   
C205     C      0.507910000000     0.848910000000     0.904330000000     0.0126507  
C206     C      0.597880000000     0.685660000000     0.840340000000     0.0147998  
C207     C      0.510070000000     0.682980000000     0.840590000000     0.012958   
C208     C      0.600750000000     0.722290000000     0.860050000000    -0.0995359  
C209     C      0.508140000000     0.819680000000     0.881710000000    -0.100415   
C210     C      0.506730000000     0.723250000000     0.858900000000    -0.0991562  
C211     C      0.553740000000     0.790320000000     0.878020000000     0.017302   
C212     C      0.553820000000     0.748690000000     0.864830000000     0.0168702  
C213     C      0.595760000000     0.841540000000     0.908390000000     0.013309   
C214     C      0.600310000000     0.814550000000     0.885390000000    -0.100489   
C215     C      0.613520000000     0.345130000000     0.874440000000     0.0123922  
C216     C      0.528930000000     0.186750000000     0.943240000000     0.014366   
C217     C      0.616580000000     0.183300000000     0.940990000000     0.01257    
C218     C      0.524490000000     0.221830000000     0.922900000000    -0.0992429  
C219     C      0.616160000000     0.315730000000     0.897000000000    -0.100142   
C220     C      0.618380000000     0.221070000000     0.921420000000    -0.098906   
C221     C      0.570370000000     0.288070000000     0.902680000000     0.0167356  
C222     C      0.571160000000     0.247200000000     0.916440000000     0.0161271  
C223     C      0.525180000000     0.340930000000     0.873820000000     0.0131263  
C224     C      0.523440000000     0.313390000000     0.896800000000    -0.100332   
C225     C      0.962410000000     0.573700000000     0.827090000000     0.0117272  
C226     C      0.012600000000     0.657460000000     0.735840000000     0.0124592  
C227     C      0.967490000000     0.578640000000     0.739210000000     0.0118421  
C228     C      0.034360000000     0.650010000000     0.759980000000    -0.102293   
C229     C      0.948420000000     0.613020000000     0.809870000000    -0.102073   
C230     C      0.985860000000     0.571910000000     0.763940000000    -0.100567   
C231     C      0.991990000000     0.630700000000     0.797200000000     0.019417   
C232     C      0.001190000000     0.619610000000     0.774630000000     0.0190657  
C233     C      0.045030000000     0.611830000000     0.830250000000     0.0116457  
C234     C      0.029630000000     0.651460000000     0.813060000000    -0.102851   
C235     C      0.040900000000     0.089570000000     0.714200000000     0.0116747  
C236     C      0.947040000000     0.055090000000     0.808750000000     0.0127671  
C237     C      0.028940000000     0.091480000000     0.809210000000     0.0119582  
C238     C      0.956630000000     0.030880000000     0.785300000000    -0.101778   
C239     C      0.011690000000     0.105990000000     0.735160000000    -0.102137   
C240     C      0.039160000000     0.071180000000     0.784980000000    -0.100949   
C241     C      0.991470000000     0.063070000000     0.748210000000     0.0191142  
C242     C      0.993700000000     0.059170000000     0.771790000000     0.0177359  
C243     C      0.994610000000     0.010930000000     0.713070000000     0.0122542  
C244     C      0.963410000000     0.028120000000     0.733310000000    -0.102734   
C245     C      0.059270000000     0.693610000000     0.934800000000     0.0142312  
C246     C      0.967150000000     0.849430000000     0.866650000000     0.0148642  
C247     C      0.054820000000     0.851240000000     0.865790000000     0.0135734  
C248     C      0.965260000000     0.817450000000     0.888260000000    -0.0994863  
C249     C      0.061350000000     0.728550000000     0.914220000000    -0.0992369  
C250     C      0.059270000000     0.818310000000     0.887080000000    -0.0994744  
C251     C      0.013770000000     0.753360000000     0.908600000000     0.0165941  
C252     C      0.012770000000     0.792730000000     0.893970000000     0.0166282  
C253     C      0.971790000000     0.693570000000     0.936170000000     0.0144396  
C254     C      0.967050000000     0.728380000000     0.915650000000    -0.0991829  
C255     C      0.050980000000     0.183280000000     0.914390000000     0.0144114  
C256     C      0.966130000000     0.375150000000     0.869960000000     0.0147307  
C257     C      0.053950000000     0.373540000000     0.869310000000     0.0138412  
C258     C      0.962510000000     0.330200000000     0.885270000000    -0.0995411  
C259     C      0.054470000000     0.225530000000     0.897450000000    -0.0998251  
C260     C      0.056490000000     0.328140000000     0.884450000000    -0.0995585  
C261     C      0.008160000000     0.254480000000     0.895320000000     0.0167118  
C262     C      0.008940000000     0.301270000000     0.887130000000     0.0168285  
C263     C      0.962950000000     0.183460000000     0.914110000000     0.0134516  
C264     C      0.960840000000     0.227090000000     0.897750000000    -0.0994123  
C265     C      0.588940000000     0.566830000000     0.282740000000     0.0122795  
C266     C      0.494140000000     0.601250000000     0.195310000000     0.0116168  
C267     C      0.575200000000     0.560550000000     0.198340000000     0.0121763  
C268     C      0.508120000000     0.636080000000     0.215020000000    -0.102681   
C269     C      0.555260000000     0.552300000000     0.263240000000    -0.101959   
C270     C      0.588820000000     0.595520000000     0.217610000000    -0.101975   
C271     C      0.533990000000     0.596980000000     0.252250000000     0.019759   
C272     C      0.544620000000     0.611600000000     0.230320000000     0.0195971  
C273     C      0.541550000000     0.644130000000     0.288670000000     0.011672   
C274     C      0.507500000000     0.629350000000     0.268980000000    -0.102724   
C275     C      0.506930000000     0.559770000000     0.937630000000     0.0129946  
C276     C      0.584260000000     0.495790000000     0.036680000000     0.013661   
C277     C      0.496090000000     0.499200000000     0.035200000000     0.0128841  
C278     C      0.589640000000     0.523470000000     0.013910000000    -0.100131   
C279     C      0.502130000000     0.531970000000     0.960480000000    -0.100067   
C280     C      0.496580000000     0.525450000000     0.011770000000    -0.0998811  
C281     C      0.547060000000     0.532650000000     0.975510000000     0.0169848  
C282     C      0.544490000000     0.523940000000     0.999060000000     0.0170038  
C283     C      0.595130000000     0.560680000000     0.940140000000     0.0131318  
C284     C      0.595050000000     0.532300000000     0.962920000000    -0.100019   
C285     C      0.456420000000     0.044040000000     0.354490000000     0.0123029  
C286     C      0.559640000000     0.021670000000     0.261980000000     0.0120711  
C287     C      0.479580000000     0.062960000000     0.259820000000     0.0120821  
C288     C      0.542130000000     0.989670000000     0.281980000000    -0.101413   
C289     C      0.482620000000     0.058830000000     0.332290000000    -0.100789   
C290     C      0.461840000000     0.033170000000     0.280410000000    -0.101378   
C291     C      0.500710000000     0.015120000000     0.318840000000     0.0173137  
C292     C      0.502970000000     0.015460000000     0.295210000000     0.0182685  
C293     C      0.497030000000     0.963200000000     0.354300000000     0.0125907  
C294     C      0.526770000000     0.977280000000     0.333070000000    -0.101018   
C295     C      0.587690000000     0.960510000000     0.005110000000     0.0140349  
C296     C      0.491300000000     0.055160000000     0.093880000000     0.0130886  
C297     C      0.579610000000     0.053060000000     0.096140000000     0.0133391  
C298     C      0.490480000000     0.018490000000     0.074000000000    -0.100518   
C299     C      0.589220000000     0.991310000000     0.027070000000    -0.0995596  
C300     C      0.583100000000     0.015550000000     0.076750000000    -0.10057    
C301     C      0.540810000000     0.997750000000     0.038890000000     0.0172179  
C302     C      0.538410000000     0.013210000000     0.061600000000     0.0168226  
C303     C      0.500230000000     0.967380000000     0.001400000000     0.0133697  
C304     C      0.495930000000     0.997010000000     0.023750000000    -0.0993581  
C305     C      0.498460000000     0.720750000000     0.097180000000     0.0141324  
C306     C      0.568700000000     0.865020000000     0.176220000000     0.0137828  
C307     C      0.481170000000     0.865990000000     0.171420000000     0.0129675  
C308     C      0.576670000000     0.839050000000     0.153110000000    -0.0999388  
C309     C      0.490330000000     0.752220000000     0.118660000000    -0.0992676  
C310     C      0.483840000000     0.839030000000     0.148200000000    -0.0997396  
C311     C      0.535470000000     0.776620000000     0.128050000000     0.0165182  
C312     C      0.531870000000     0.814250000000     0.143690000000     0.0166833  
C313     C      0.585640000000     0.720370000000     0.101870000000     0.013471   
C314     C      0.583850000000     0.752380000000     0.123570000000    -0.0992144  
C315     C      0.486900000000     0.387360000000     0.141300000000     0.0108125  
C316     C      0.575000000000     0.210480000000     0.174500000000     0.0105449  
C317     C      0.482810000000     0.211690000000     0.173490000000     0.0109968  
C318     C      0.573250000000     0.264230000000     0.180900000000    -0.102166   
C319     C      0.486760000000     0.332460000000     0.137730000000    -0.102448   
C320     C      0.485220000000     0.265120000000     0.180300000000    -0.102518   
C321     C      0.530470000000     0.311350000000     0.149220000000     0.0213248  
C322     C      0.529730000000     0.286390000000     0.169820000000     0.0209191  
C323     C      0.578250000000     0.384640000000     0.141410000000     0.0110292  
C324     C      0.575350000000     0.329880000000     0.137800000000    -0.10259    
C325     C      0.023450000000     0.528640000000     0.325760000000     0.0118311  
C326     C      0.043320000000     0.608070000000     0.229070000000     0.0121374  
C327     C      0.962190000000     0.570350000000     0.231940000000     0.0126852  
C328     C      0.056560000000     0.588760000000     0.253120000000    -0.100727   
C329     C      0.988290000000     0.545880000000     0.307120000000    -0.101822   
C330     C      0.974740000000     0.547220000000     0.255320000000    -0.101235   
C331     C      0.013200000000     0.581250000000     0.291160000000     0.0184844  
C332     C      0.012840000000     0.576540000000     0.267590000000     0.0175958  
C333     C      0.068650000000     0.607790000000     0.322800000000     0.0114314  
C334     C      0.035180000000     0.624260000000     0.303430000000    -0.101456   
C335     C      0.067920000000     0.449980000000     0.977760000000     0.0119458  
C336     C      0.980200000000     0.479000000000     0.071840000000     0.0114704  
C337     C      0.069950000000     0.492020000000     0.072560000000     0.00998983 
C338     C      0.988010000000     0.435250000000     0.056110000000    -0.101216   
C339     C      0.073700000000     0.464210000000     0.003380000000    -0.100796   
C340     C      0.075970000000     0.449770000000     0.055470000000    -0.101209   
C341     C      0.028790000000     0.455560000000     0.017710000000     0.0183269  
C342     C      0.031100000000     0.444620000000     0.040960000000     0.0178259  
C343     C      0.979330000000     0.452750000000     0.981150000000     0.0132629  
C344     C      0.982330000000     0.470880000000     0.006110000000    -0.101217   
C345     C      0.962600000000     0.093510000000     0.212060000000     0.0123458  
C346     C      0.079900000000     0.072530000000     0.301920000000     0.0140588  
C347     C      0.033030000000     0.996500000000     0.295990000000     0.0129912  
C348     C      0.050920000000     0.098930000000     0.283400000000    -0.101434   
C349     C      0.977270000000     0.056980000000     0.230750000000    -0.10023    
C350     C      0.001080000000     0.021350000000     0.277950000000    -0.102519   
C351     C      0.020600000000     0.075230000000     0.244000000000     0.0167023  
C352     C      0.027230000000     0.063570000000     0.266750000000     0.0183704  
C353     C      0.044710000000     0.127150000000     0.209630000000     0.0136786  
C354     C      0.061840000000     0.094540000000     0.229410000000    -0.100604   
C355     C      0.980380000000     0.967820000000     0.968460000000     0.0120143  
C356     C      0.070420000000     0.962690000000     0.062410000000     0.011418   
C357     C      0.981530000000     0.966160000000     0.058570000000     0.0127955  
C358     C      0.076430000000     0.973390000000     0.036390000000    -0.100863   
C359     C      0.989890000000     0.928900000000     0.986650000000    -0.101752   
C360     C      0.985790000000     0.981150000000     0.033190000000    -0.100984   
C361     C      0.033360000000     0.943240000000     0.000470000000     0.0185961  
C362     C      0.031640000000     0.961860000000     0.022560000000     0.0185927  
C363     C      0.070400000000     0.981090000000     0.965630000000     0.0102406  
C364     C      0.077460000000     0.944240000000     0.985310000000    -0.101675   
C365     C      0.967880000000     0.889740000000     0.169660000000     0.0145157  
C366     C      0.055150000000     0.699040000000     0.124990000000     0.0141527  
C367     C      0.967130000000     0.697790000000     0.125680000000     0.0135264  
C368     C      0.058230000000     0.741100000000     0.142080000000    -0.0997834  
C369     C      0.964900000000     0.844450000000     0.154510000000    -0.0994284  
C370     C      0.964630000000     0.741180000000     0.142170000000    -0.099549   
C371     C      0.011700000000     0.816100000000     0.152660000000     0.0167227  
C372     C      0.011530000000     0.769330000000     0.144430000000     0.0167338  
C373     C      0.055690000000     0.888740000000     0.170650000000     0.0137663  
C374     C      0.058910000000     0.843520000000     0.155430000000    -0.0994413  
C375     C      0.976020000000     0.364180000000     0.173180000000     0.0147855  
C376     C      0.061400000000     0.207300000000     0.103590000000     0.0142323  
C377     C      0.973880000000     0.208510000000     0.103550000000     0.0142745  
C378     C      0.065280000000     0.242670000000     0.123950000000    -0.0992726  
C379     C      0.972080000000     0.332690000000     0.151480000000    -0.0993846  
C380     C      0.970940000000     0.243630000000     0.124040000000    -0.0992387  
C381     C      0.018880000000     0.307600000000     0.144840000000     0.0166675  
C382     C      0.018410000000     0.268100000000     0.130270000000     0.0166614  
C383     C      0.063700000000     0.365870000000     0.172160000000     0.0133031  
C384     C      0.066060000000     0.333000000000     0.150750000000    -0.0992892  
Cu1      Cu     0.058850000000     0.046960000000     0.135290000000     0.836641   
Cu2      Cu     0.971130000000     0.045250000000     0.132390000000     0.844555   
Cu3      Cu     0.059130000000     0.535570000000     0.152910000000     0.838051   
Cu4      Cu     0.971400000000     0.531030000000     0.150860000000     0.842558   
Cu5      Cu     0.570290000000     0.038870000000     0.179080000000     0.840528   
Cu6      Cu     0.482500000000     0.040640000000     0.176870000000     0.838837   
Cu7      Cu     0.581580000000     0.548170000000     0.115990000000     0.8443     
Cu8      Cu     0.493740000000     0.551130000000     0.115180000000     0.835686   
Cu9      Cu     0.051990000000     0.020720000000     0.885390000000     0.837606   
Cu10     Cu     0.964550000000     0.016200000000     0.889440000000     0.842189   
Cu11     Cu     0.057280000000     0.532330000000     0.904230000000     0.836673   
Cu12     Cu     0.969530000000     0.530720000000     0.906950000000     0.84575    
Cu13     Cu     0.519440000000     0.019050000000     0.922000000000     0.837573   
Cu14     Cu     0.606610000000     0.010950000000     0.925980000000     0.842264   
Cu15     Cu     0.604920000000     0.516930000000     0.859510000000     0.840231   
Cu16     Cu     0.517270000000     0.511430000000     0.857600000000     0.836885   
Cu17     Cu     0.011130000000     0.987800000000     0.379020000000     0.839582   
Cu18     Cu     0.016710000000     0.076910000000     0.379900000000     0.838065   
Cu19     Cu     0.071040000000     0.521040000000     0.405560000000     0.838789   
Cu20     Cu     0.077630000000     0.610100000000     0.406430000000     0.844886   
Cu21     Cu     0.520390000000     0.976470000000     0.436480000000     0.840408   
Cu22     Cu     0.512050000000     0.065150000000     0.433600000000     0.836607   
Cu23     Cu     0.595680000000     0.546990000000     0.365330000000     0.848586   
Cu24     Cu     0.584730000000     0.635250000000     0.369320000000     0.835926   
Cu25     Cu     0.029860000000     0.003260000000     0.631760000000     0.83842    
Cu26     Cu     0.036260000000     0.092270000000     0.630570000000     0.839911   
Cu27     Cu     0.019830000000     0.541120000000     0.661390000000     0.831499   
Cu28     Cu     0.014180000000     0.628660000000     0.653560000000     0.847328   
Cu29     Cu     0.521740000000     0.104990000000     0.686370000000     0.841367   
Cu30     Cu     0.527730000000     0.016300000000     0.690560000000     0.839953   
Cu31     Cu     0.535970000000     0.575810000000     0.612310000000     0.834857   
Cu32     Cu     0.525510000000     0.490240000000     0.601450000000     0.840215   
H1       H      0.787850000000     0.632950000000     0.623910000000     0.0423875  
H2       H      0.715890000000     0.481940000000     0.569910000000     0.0259538  
H3       H      0.823820000000     0.526870000000     0.668070000000     0.0257861  
H4       H      0.801930000000     0.479540000000     0.635630000000     0.042421   
H5       H      0.763050000000     0.467170000000     0.602390000000     0.0423259  
H6       H      0.750820000000     0.615810000000     0.591130000000     0.0423735  
H7       H      0.862740000000     0.647340000000     0.645720000000     0.0353186  
H8       H      0.675920000000     0.453680000000     0.590190000000     0.0343344  
H9       H      0.850480000000     0.500750000000     0.618000000000     0.0520511  
H10      H      0.706180000000     0.604430000000     0.613040000000     0.0539388  
H11      H      0.875300000000     0.494430000000     0.658290000000     0.0353411  
H12      H      0.713130000000     0.568550000000     0.563010000000     0.0243998  
H13      H      0.840020000000     0.610690000000     0.609270000000     0.0513155  
H14      H      0.717490000000     0.484310000000     0.622830000000     0.050002   
H15      H      0.667470000000     0.605270000000     0.575820000000     0.0327414  
H16      H      0.816940000000     0.615620000000     0.661220000000     0.0262628  
H17      H      0.252590000000     0.527990000000     0.680320000000     0.0426629  
H18      H      0.348480000000     0.481280000000     0.618420000000     0.0311956  
H19      H      0.206720000000     0.651970000000     0.650910000000     0.0286486  
H20      H      0.236330000000     0.610330000000     0.616260000000     0.0430201  
H21      H      0.283110000000     0.533590000000     0.604110000000     0.0434919  
H22      H      0.335250000000     0.507550000000     0.663610000000     0.049645   
H23      H      0.166630000000     0.549030000000     0.690510000000     0.0325343  
H24      H      0.368130000000     0.517780000000     0.594500000000     0.0306819  
H25      H      0.194080000000     0.561730000000     0.619800000000     0.0510569  
H26      H      0.324520000000     0.568010000000     0.674430000000     0.0439718  
H27      H      0.159050000000     0.641120000000     0.630550000000     0.0330429  
H28      H      0.409580000000     0.556890000000     0.663100000000     0.0293692  
H29      H      0.208650000000     0.505090000000     0.660870000000     0.0524753  
H30      H      0.318980000000     0.587170000000     0.608370000000     0.0506881  
H31      H      0.380830000000     0.603250000000     0.646500000000     0.0333227  
H32      H      0.207650000000     0.598660000000     0.688970000000     0.0258086  
H33      H      0.749300000000     0.985910000000     0.657090000000     0.0426037  
H34      H      0.853250000000     0.105610000000     0.598200000000     0.0257661  
H35      H      0.712300000000     0.117760000000     0.687050000000     0.0266398  
H36      H      0.748660000000     0.142320000000     0.652580000000     0.0422196  
H37      H      0.801850000000     0.136950000000     0.625570000000     0.0420909  
H38      H      0.796910000000     0.985160000000     0.627330000000     0.042461   
H39      H      0.673430000000     0.988470000000     0.677180000000     0.0358972  
H40      H      0.891270000000     0.135400000000     0.618640000000     0.0353176  
H41      H      0.704130000000     0.116180000000     0.634060000000     0.0500586  
H42      H      0.837130000000     0.001410000000     0.650540000000     0.0512025  
H43      H      0.666560000000     0.143210000000     0.669130000000     0.035376   
H44      H      0.845740000000     0.016580000000     0.598100000000     0.0257927  
H45      H      0.702650000000     0.007510000000     0.638340000000     0.0513405  
H46      H      0.838590000000     0.121160000000     0.650080000000     0.0503865  
H47      H      0.882530000000     0.980200000000     0.616590000000     0.0354952  
H48      H      0.718430000000     0.025260000000     0.690410000000     0.0263208  
H49      H      0.257440000000     0.120080000000     0.656940000000     0.0425837  
H50      H      0.342120000000     0.011450000000     0.727220000000     0.0257831  
H51      H      0.224780000000     0.985830000000     0.629900000000     0.026991   
H52      H      0.254320000000     0.965410000000     0.666540000000     0.0426667  
H53      H      0.296990000000     0.975370000000     0.698370000000     0.0428488  
H54      H      0.294040000000     0.125770000000     0.690900000000     0.0423824  
H55      H      0.185740000000     0.114900000000     0.633070000000     0.0354219  
H56      H      0.384650000000     0.977720000000     0.710600000000     0.035687   
H57      H      0.205710000000     0.992530000000     0.682100000000     0.0506334  
H58      H      0.339950000000     0.107240000000     0.670810000000     0.0525142  
H59      H      0.175450000000     0.961940000000     0.646030000000     0.0357463  
H60      H      0.335680000000     0.098580000000     0.723670000000     0.0251088  
H61      H      0.206260000000     0.103250000000     0.673960000000     0.0518545  
H62      H      0.340240000000     0.985860000000     0.675810000000     0.0514175  
H63      H      0.377160000000     0.132440000000     0.706440000000     0.0344719  
H64      H      0.232600000000     0.075100000000     0.624050000000     0.026401   
H65      H      0.590710000000     0.654170000000     0.481480000000     0.0421037  
H66      H      0.446710000000     0.547070000000     0.515020000000     0.0248036  
H67      H      0.648680000000     0.532950000000     0.459240000000     0.0260937  
H68      H      0.577980000000     0.501090000000     0.475510000000     0.0427447  
H69      H      0.506620000000     0.506160000000     0.493690000000     0.0426236  
H70      H      0.526380000000     0.655600000000     0.503860000000     0.0421127  
H71      H      0.623390000000     0.658830000000     0.440740000000     0.0345409  
H72      H      0.469980000000     0.499230000000     0.532740000000     0.0340012  
H73      H      0.540200000000     0.527240000000     0.453530000000     0.0514402  
H74      H      0.569230000000     0.628310000000     0.523050000000     0.0497637  
H75      H      0.615670000000     0.503950000000     0.436450000000     0.0348526  
H76      H      0.460900000000     0.631450000000     0.525260000000     0.025813   
H77      H      0.547990000000     0.642870000000     0.458830000000     0.051702   
H78      H      0.549700000000     0.510390000000     0.516870000000     0.0545939  
H79      H      0.503650000000     0.647480000000     0.547090000000     0.0347483  
H80      H      0.654660000000     0.621370000000     0.461000000000     0.0252283  
H81      H      0.538870000000     0.115740000000     0.545020000000     0.0422989  
H82      H      0.444640000000     0.992400000000     0.604830000000     0.0263372  
H83      H      0.603200000000     0.995420000000     0.522470000000     0.0261313  
H84      H      0.551170000000     0.962430000000     0.549880000000     0.0422902  
H85      H      0.500990000000     0.962280000000     0.578860000000     0.0423883  
H86      H      0.488060000000     0.115340000000     0.573710000000     0.0423191  
H87      H      0.550090000000     0.111550000000     0.502180000000     0.0353514  
H88      H      0.491610000000     0.966960000000     0.622020000000     0.0353659  
H89      H      0.498300000000     0.975110000000     0.533220000000     0.0514761  
H90      H      0.541000000000     0.103180000000     0.590440000000     0.0514764  
H91      H      0.562770000000     0.956810000000     0.507120000000     0.0353236  
H92      H      0.436290000000     0.081430000000     0.601050000000     0.025803   
H93      H      0.489020000000     0.090150000000     0.529590000000     0.0509969  
H94      H      0.551220000000     0.987880000000     0.593960000000     0.0506774  
H95      H      0.475750000000     0.121260000000     0.616270000000     0.0351054  
H96      H      0.595980000000     0.084760000000     0.519580000000     0.0261901  
H97      H      0.097070000000     0.632780000000     0.550550000000     0.0424031  
H98      H      0.153900000000     0.515800000000     0.491630000000     0.0268894  
H99      H      0.004820000000     0.508210000000     0.568310000000     0.0277876  
H100     H      0.075130000000     0.474750000000     0.551860000000     0.0422497  
H101     H      0.102760000000     0.476850000000     0.517840000000     0.0425101  
H102     H      0.066260000000     0.631970000000     0.518150000000     0.0432075  
H103     H      0.042280000000     0.640060000000     0.582900000000     0.0360235  
H104     H      0.111830000000     0.482180000000     0.474820000000     0.0359358  
H105     H      0.113910000000     0.504500000000     0.571840000000     0.048568   
H106     H      0.032870000000     0.591950000000     0.500960000000     0.0533513  
H107     H      0.040010000000     0.484910000000     0.591650000000     0.0356612  
H108     H      0.140480000000     0.609700000000     0.496060000000     0.0272936  
H109     H      0.117650000000     0.596090000000     0.573140000000     0.0510268  
H110     H      0.049060000000     0.495090000000     0.503210000000     0.0508611  
H111     H      0.094550000000     0.637110000000     0.478720000000     0.0355325  
H112     H      0.011460000000     0.606220000000     0.560950000000     0.0281924  
H113     H      0.854690000000     0.663520000000     0.410200000000     0.0423337  
H114     H      0.784330000000     0.579270000000     0.333110000000     0.0242669  
H115     H      0.878440000000     0.534180000000     0.434920000000     0.0258006  
H116     H      0.843930000000     0.512490000000     0.398970000000     0.0427508  
H117     H      0.815920000000     0.528000000000     0.362250000000     0.0424335  
H118     H      0.817090000000     0.677340000000     0.376430000000     0.0422282  
H119     H      0.936920000000     0.652710000000     0.427840000000     0.0342891  
H120     H      0.738940000000     0.536900000000     0.341340000000     0.0334187  
H121     H      0.895000000000     0.531720000000     0.382370000000     0.0515744  
H122     H      0.770060000000     0.654710000000     0.394660000000     0.0501229  
H123     H      0.921780000000     0.499490000000     0.419120000000     0.0348375  
H124     H      0.776070000000     0.664540000000     0.342110000000     0.0255933  
H125     H      0.901730000000     0.649410000000     0.390070000000     0.0523669  
H126     H      0.765920000000     0.537100000000     0.381460000000     0.054695   
H127     H      0.730730000000     0.685740000000     0.361590000000     0.0347088  
H128     H      0.888420000000     0.620250000000     0.440740000000     0.0249705  
H129     H      0.301140000000     0.473170000000     0.378490000000     0.0427109  
H130     H      0.402130000000     0.622270000000     0.365870000000     0.0285623  
H131     H      0.258570000000     0.607960000000     0.409510000000     0.0291032  
H132     H      0.305550000000     0.631580000000     0.374050000000     0.0432846  
H133     H      0.353920000000     0.629910000000     0.402430000000     0.0431781  
H134     H      0.372470000000     0.475360000000     0.387580000000     0.0425711  
H135     H      0.214600000000     0.479290000000     0.387320000000     0.0360466  
H136     H      0.437500000000     0.643730000000     0.389660000000     0.0356694  
H137     H      0.268590000000     0.594990000000     0.356750000000     0.0507391  
H138     H      0.402730000000     0.506570000000     0.409970000000     0.0494398  
H139     H      0.221840000000     0.633970000000     0.387320000000     0.0358623  
H140     H      0.415820000000     0.518880000000     0.357300000000     0.0292768  
H141     H      0.269350000000     0.507410000000     0.357680000000     0.0496602  
H142     H      0.394490000000     0.592340000000     0.417100000000     0.050435   
H143     H      0.456320000000     0.491880000000     0.377480000000     0.0361757  
H144     H      0.251650000000     0.501430000000     0.410240000000     0.029287   
H145     H      0.983260000000     0.959190000000     0.492620000000     0.0421636  
H146     H      0.099070000000     0.084920000000     0.540190000000     0.0261148  
H147     H      0.925290000000     0.076280000000     0.465830000000     0.0256422  
H148     H      0.981550000000     0.112170000000     0.490320000000     0.0422488  
H149     H      0.038300000000     0.115460000000     0.516480000000     0.0423246  
H150     H      0.038540000000     0.960810000000     0.519470000000     0.0423291  
H151     H      0.970690000000     0.954970000000     0.449350000000     0.0351352  
H152     H      0.059750000000     0.119480000000     0.558260000000     0.0352282  
H153     H      0.031890000000     0.094020000000     0.472910000000     0.0513298  
H154     H      0.991020000000     0.982400000000     0.537740000000     0.0516021  
H155     H      0.965100000000     0.110290000000     0.447820000000     0.0350545  
H156     H      0.099000000000     0.995100000000     0.542070000000     0.0262908  
H157     H      0.033980000000     0.975960000000     0.475200000000     0.0504412  
H158     H      0.990980000000     0.096840000000     0.535630000000     0.0514108  
H159     H      0.059480000000     0.963980000000     0.561390000000     0.0355015  
H160     H      0.927350000000     0.987440000000     0.466080000000     0.0259794  
H161     H      0.784710000000     0.963570000000     0.366580000000     0.0422145  
H162     H      0.703870000000     0.083720000000     0.432370000000     0.0269971  
H163     H      0.835820000000     0.090000000000     0.340300000000     0.0253015  
H164     H      0.782290000000     0.114310000000     0.368230000000     0.0420205  
H165     H      0.731910000000     0.114780000000     0.396970000000     0.0422707  
H166     H      0.741150000000     0.957990000000     0.398140000000     0.0424245  
H167     H      0.869810000000     0.964060000000     0.354190000000     0.0342954  
H168     H      0.654320000000     0.109860000000     0.417330000000     0.0356331  
H169     H      0.820620000000     0.099930000000     0.392350000000     0.0500836  
H170     H      0.691160000000     0.979080000000     0.381450000000     0.0504581  
H171     H      0.872920000000     0.118530000000     0.361580000000     0.034919   
H172     H      0.712660000000     0.991530000000     0.433400000000     0.0274519  
H173     H      0.826030000000     0.978020000000     0.389620000000     0.0528232  
H174     H      0.685900000000     0.087020000000     0.379930000000     0.0504258  
H175     H      0.667280000000     0.954720000000     0.420410000000     0.0356168  
H176     H      0.830300000000     0.001880000000     0.337820000000     0.0243584  
H177     H      0.284840000000     0.087610000000     0.449210000000     0.042192   
H178     H      0.201910000000     0.975380000000     0.381300000000     0.0276399  
H179     H      0.337780000000     0.960040000000     0.471690000000     0.0261571  
H180     H      0.284300000000     0.936920000000     0.443280000000     0.042174   
H181     H      0.232670000000     0.939380000000     0.415110000000     0.0423988  
H182     H      0.236870000000     0.096160000000     0.420000000000     0.042347   
H183     H      0.371120000000     0.087310000000     0.459590000000     0.0346555  
H184     H      0.154060000000     0.945150000000     0.395890000000     0.03586    
H185     H      0.321580000000     0.955590000000     0.419430000000     0.0502805  
H186     H      0.188920000000     0.070220000000     0.436510000000     0.0508723  
H187     H      0.374430000000     0.933410000000     0.449630000000     0.0351856  
H188     H      0.207210000000     0.068480000000     0.383960000000     0.0270864  
H189     H      0.324230000000     0.076230000000     0.425000000000     0.0520703  
H190     H      0.186860000000     0.962930000000     0.433670000000     0.050364   
H191     H      0.161420000000     0.100620000000     0.399200000000     0.0356536  
H192     H      0.333230000000     0.048260000000     0.476150000000     0.0253059  
H193     H      0.616770000000     0.542830000000     0.720190000000     0.043327   
H194     H      0.506300000000     0.500260000000     0.770050000000     0.0302374  
H195     H      0.592650000000     0.420610000000     0.680440000000     0.0279256  
H196     H      0.534640000000     0.409920000000     0.710830000000     0.0427589  
H197     H      0.510700000000     0.427440000000     0.746690000000     0.0428964  
H198     H      0.650730000000     0.497920000000     0.745500000000     0.0428879  
H199     H      0.610780000000     0.557690000000     0.677510000000     0.035192   
H200     H      0.503790000000     0.447860000000     0.788450000000     0.0343761  
H201     H      0.503950000000     0.465440000000     0.703660000000     0.0506052  
H202     H      0.640460000000     0.446410000000     0.762930000000     0.0512598  
H203     H      0.533450000000     0.424310000000     0.668670000000     0.0355074  
H204     H      0.596100000000     0.546650000000     0.769730000000     0.0273866  
H205     H      0.557340000000     0.549670000000     0.710350000000     0.0523397  
H206     H      0.559190000000     0.403330000000     0.763380000000     0.0499037  
H207     H      0.640170000000     0.518030000000     0.787480000000     0.0358166  
H208     H      0.640920000000     0.502660000000     0.684800000000     0.026091   
H209     H      0.647150000000     0.035680000000     0.791050000000     0.0433856  
H210     H      0.611440000000     0.008820000000     0.829880000000     0.0261553  
H211     H      0.516350000000     0.109530000000     0.782070000000     0.026458   
H212     H      0.573290000000     0.175850000000     0.791600000000     0.0426598  
H213     H      0.678720000000     0.066150000000     0.822410000000     0.0424975  
H214     H      0.541690000000     0.142900000000     0.822390000000     0.0434579  
H215     H      0.599360000000     0.011440000000     0.756910000000     0.0348789  
H216     H      0.648780000000     0.014520000000     0.854910000000     0.034906   
H217     H      0.609600000000     0.159040000000     0.767760000000     0.052496   
H218     H      0.581630000000     0.148700000000     0.846450000000     0.0499256  
H219     H      0.525150000000     0.148120000000     0.757480000000     0.0350591  
H220     H      0.527990000000     0.057100000000     0.830410000000     0.0299205  
H221     H      0.654680000000     0.077310000000     0.767540000000     0.0501896  
H222     H      0.661130000000     0.101310000000     0.846660000000     0.0524245  
H223     H      0.515810000000     0.092840000000     0.855830000000     0.03482    
H224     H      0.562790000000     0.023710000000     0.781880000000     0.0300202  
H225     H      0.475960000000     0.796510000000     0.882510000000     0.0424728  
H226     H      0.595930000000     0.705810000000     0.823640000000     0.0252204  
H227     H      0.591390000000     0.814450000000     0.922520000000     0.0269985  
H228     H      0.629540000000     0.788170000000     0.888060000000     0.0425358  
H229     H      0.629070000000     0.748310000000     0.854980000000     0.0423316  
H230     H      0.480460000000     0.749690000000     0.852060000000     0.0423774  
H231     H      0.477450000000     0.874570000000     0.903970000000     0.0357394  
H232     H      0.631000000000     0.663650000000     0.839980000000     0.0344954  
H233     H      0.611370000000     0.840320000000     0.871600000000     0.051335   
H234     H      0.492210000000     0.707350000000     0.875150000000     0.0501987  
H235     H      0.629460000000     0.861450000000     0.911740000000     0.0355864  
H236     H      0.509200000000     0.700060000000     0.823110000000     0.0259366  
H237     H      0.503990000000     0.844920000000     0.866840000000     0.0512682  
H238     H      0.611990000000     0.703250000000     0.876140000000     0.0524916  
H239     H      0.478270000000     0.659190000000     0.841960000000     0.0352222  
H240     H      0.501700000000     0.823420000000     0.918980000000     0.0267929  
H241     H      0.647050000000     0.291160000000     0.894820000000     0.0419926  
H242     H      0.532510000000     0.208260000000     0.959480000000     0.0253874  
H243     H      0.526320000000     0.314090000000     0.859440000000     0.0259468  
H244     H      0.493540000000     0.287460000000     0.894940000000     0.0422249  
H245     H      0.496980000000     0.248550000000     0.928160000000     0.0422185  
H246     H      0.646350000000     0.247390000000     0.926540000000     0.0419837  
H247     H      0.644840000000     0.369650000000     0.873570000000     0.0354782  
H248     H      0.495750000000     0.165040000000     0.944750000000     0.0346728  
H249     H      0.514650000000     0.339010000000     0.911030000000     0.0513656  
H250     H      0.629960000000     0.202710000000     0.905210000000     0.0497665  
H251     H      0.491740000000     0.362050000000     0.871870000000     0.0354346  
H252     H      0.619120000000     0.202660000000     0.957880000000     0.025901   
H253     H      0.623980000000     0.340670000000     0.911640000000     0.050555   
H254     H      0.511370000000     0.201660000000     0.907480000000     0.0519446  
H255     H      0.648060000000     0.159090000000     0.939630000000     0.0350555  
H256     H      0.616260000000     0.319560000000     0.859590000000     0.0261799  
H257     H      0.919890000000     0.600240000000     0.798020000000     0.043163   
H258     H      0.980430000000     0.680730000000     0.737470000000     0.029893   
H259     H      0.065630000000     0.583800000000     0.820700000000     0.0306291  
H260     H      0.061700000000     0.664530000000     0.803730000000     0.042888   
H261     H      0.040020000000     0.686440000000     0.767660000000     0.0431224  
H262     H      0.958450000000     0.552410000000     0.774120000000     0.0436981  
H263     H      0.930610000000     0.564510000000     0.837700000000     0.0358304  
H264     H      0.038940000000     0.676900000000     0.724830000000     0.0342332  
H265     H      0.014500000000     0.682590000000     0.822810000000     0.0493941  
H266     H      0.017550000000     0.547830000000     0.763390000000     0.0521736  
H267     H      0.069250000000     0.628280000000     0.843350000000     0.0331299  
H268     H      0.931530000000     0.595410000000     0.740170000000     0.0267993  
H269     H      0.932890000000     0.643860000000     0.819680000000     0.0506305  
H270     H      0.069380000000     0.631530000000     0.758450000000     0.0507967  
H271     H      0.963090000000     0.542530000000     0.730970000000     0.0352124  
H272     H      0.972290000000     0.540540000000     0.817280000000     0.02709    
H273     H      0.033270000000     0.130750000000     0.745990000000     0.0428792  
H274     H      0.929670000000     0.090700000000     0.805640000000     0.0277819  
H275     H      0.023810000000     0.987910000000     0.720040000000     0.0299169  
H276     H      0.952050000000     0.995360000000     0.742980000000     0.0434239  
H277     H      0.922100000000     0.029560000000     0.775890000000     0.0427414  
H278     H      0.062920000000     0.096700000000     0.775790000000     0.0429705  
H279     H      0.050210000000     0.121790000000     0.703580000000     0.0351603  
H280     H      0.921700000000     0.032090000000     0.818650000000     0.0350429  
H281     H      0.931070000000     0.046490000000     0.726510000000     0.0502036  
H282     H      0.059700000000     0.037050000000     0.787000000000     0.0524235  
H283     H      0.972400000000     0.988070000000     0.701430000000     0.0347294  
H284     H      0.015640000000     0.129140000000     0.807150000000     0.0261104  
H285     H      0.981240000000     0.127970000000     0.728760000000     0.0516017  
H286     H      0.969460000000     0.993260000000     0.788060000000     0.0514263  
H287     H      0.062760000000     0.093420000000     0.819200000000     0.03485    
H288     H      0.074890000000     0.073870000000     0.720650000000     0.0267859  
H289     H      0.089170000000     0.755720000000     0.918480000000     0.0422741  
H290     H      0.968040000000     0.825610000000     0.851080000000     0.0246582  
H291     H      0.974000000000     0.715240000000     0.952410000000     0.025023   
H292     H      0.939720000000     0.755460000000     0.920720000000     0.042375   
H293     H      0.936720000000     0.790470000000     0.885000000000     0.0424595  
H294     H      0.087660000000     0.791720000000     0.882910000000     0.0422538  
H295     H      0.091710000000     0.670550000000     0.935000000000     0.0345745  
H296     H      0.934260000000     0.871710000000     0.865550000000     0.0341548  
H297     H      0.953510000000     0.707790000000     0.900440000000     0.0528127  
H298     H      0.071370000000     0.840490000000     0.902060000000     0.0517846  
H299     H      0.939450000000     0.670500000000     0.937380000000     0.0344954  
H300     H      0.053900000000     0.828080000000     0.849990000000     0.0249676  
H301     H      0.073030000000     0.708080000000     0.898610000000     0.0523781  
H302     H      0.954610000000     0.840040000000     0.903350000000     0.0530842  
H303     H      0.086760000000     0.874840000000     0.864520000000     0.0347902  
H304     H      0.059190000000     0.715210000000     0.951110000000     0.0249284  
H305     H      0.084230000000     0.248300000000     0.903890000000     0.0423913  
H306     H      0.966130000000     0.363330000000     0.851490000000     0.0250797  
H307     H      0.962780000000     0.197020000000     0.932290000000     0.0262236  
H308     H      0.932340000000     0.250800000000     0.904750000000     0.0422965  
H309     H      0.933560000000     0.307890000000     0.877660000000     0.0423189  
H310     H      0.083770000000     0.304520000000     0.876290000000     0.0423054  
H311     H      0.083440000000     0.160460000000     0.912910000000     0.0349289  
H312     H      0.934150000000     0.398220000000     0.872580000000     0.0344615  
H313     H      0.949810000000     0.214450000000     0.880240000000     0.05091    
H314     H      0.069220000000     0.338660000000     0.902000000000     0.0511872  
H315     H      0.930460000000     0.161060000000     0.911690000000     0.0351305  
H316     H      0.052600000000     0.362100000000     0.850800000000     0.025523   
H317     H      0.064160000000     0.211440000000     0.880010000000     0.0520081  
H318     H      0.951630000000     0.341500000000     0.903010000000     0.0521312  
H319     H      0.086920000000     0.395230000000     0.871730000000     0.0349172  
H320     H      0.050150000000     0.198130000000     0.932340000000     0.0256835  
H321     H      0.573580000000     0.528250000000     0.250680000000     0.0437163  
H322     H      0.472710000000     0.571140000000     0.202740000000     0.029848   
H323     H      0.568920000000     0.669150000000     0.281540000000     0.0297595  
H324     H      0.493850000000     0.662890000000     0.260750000000     0.0429688  
H325     H      0.475210000000     0.646350000000     0.224470000000     0.0428047  
H326     H      0.616150000000     0.579330000000     0.229150000000     0.0436873  
H327     H      0.601490000000     0.533590000000     0.291720000000     0.0354974  
H328     H      0.471140000000     0.621090000000     0.182800000000     0.0336654  
H329     H      0.476680000000     0.609290000000     0.276330000000     0.050305   
H330     H      0.605800000000     0.627870000000     0.209660000000     0.051606   
H331     H      0.520810000000     0.664260000000     0.301980000000     0.0346175  
H332     H      0.562450000000     0.526280000000     0.206320000000     0.0263717  
H333     H      0.525820000000     0.530460000000     0.270770000000     0.0521472  
H334     H      0.523810000000     0.669530000000     0.207520000000     0.0496862  
H335     H      0.607710000000     0.551650000000     0.188200000000     0.0356529  
H336     H      0.620750000000     0.584490000000     0.274970000000     0.0264608  
H337     H      0.471470000000     0.548880000000     0.969500000000     0.0423072  
H338     H      0.583280000000     0.456400000000     0.032670000000     0.0262493  
H339     H      0.594800000000     0.599990000000     0.944330000000     0.0265138  
H340     H      0.623510000000     0.549090000000     0.973570000000     0.0424232  
H341     H      0.619630000000     0.505580000000     0.004770000000     0.0423571  
H342     H      0.468080000000     0.507930000000     0.001410000000     0.0421726  
H343     H      0.475850000000     0.551090000000     0.926440000000     0.0354333  
H344     H      0.616300000000     0.502370000000     0.047550000000     0.0355688  
H345     H      0.605080000000     0.494120000000     0.959320000000     0.0507014  
H346     H      0.486720000000     0.563960000000     0.014560000000     0.0506798  
H347     H      0.628860000000     0.553010000000     0.930750000000     0.0353184  
H348     H      0.494010000000     0.459600000000     0.031860000000     0.0264632  
H349     H      0.493000000000     0.493690000000     0.956610000000     0.0506001  
H350     H      0.599920000000     0.561470000000     0.017760000000     0.0516884  
H351     H      0.463330000000     0.509660000000     0.044790000000     0.0354615  
H352     H      0.505320000000     0.599170000000     0.941540000000     0.026423   
H353     H      0.459200000000     0.083010000000     0.322110000000     0.0429374  
H354     H      0.578340000000     0.053670000000     0.269340000000     0.029123   
H355     H      0.464240000000     0.944380000000     0.348290000000     0.0280315  
H356     H      0.532990000000     0.943680000000     0.322910000000     0.0429228  
H357     H      0.573480000000     0.981790000000     0.293120000000     0.0429926  
H358     H      0.434840000000     0.054320000000     0.290040000000     0.0429844  
H359     H      0.449260000000     0.076760000000     0.365150000000     0.034774   
H360     H      0.585840000000     0.000690000000     0.251570000000     0.0346071  
H361     H      0.561760000000     0.991950000000     0.338730000000     0.050756   
H362     H      0.442860000000     0.000870000000     0.273580000000     0.0521121  
H363     H      0.517950000000     0.937270000000     0.364960000000     0.0354205  
H364     H      0.492610000000     0.098300000000     0.266510000000     0.0268206  
H365     H      0.514080000000     0.080930000000     0.337270000000     0.0524022  
H366     H      0.528220000000     0.954910000000     0.275030000000     0.0505135  
H367     H      0.449140000000     0.070690000000     0.248050000000     0.0352115  
H368     H      0.421370000000     0.028540000000     0.349420000000     0.0263083  
H369     H      0.614860000000     0.972830000000     0.038760000000     0.0422852  
H370     H      0.492120000000     0.092150000000     0.086260000000     0.0264771  
H371     H      0.496250000000     0.928420000000     0.005890000000     0.0259538  
H372     H      0.465440000000     0.981000000000     0.033320000000     0.0420683  
H373     H      0.461960000000     0.031220000000     0.062180000000     0.0421953  
H374     H      0.615200000000     0.025870000000     0.066700000000     0.042417   
H375     H      0.622340000000     0.963700000000     0.995920000000     0.0353436  
H376     H      0.457650000000     0.051870000000     0.103910000000     0.0352293  
H377     H      0.486830000000     0.034940000000     0.019110000000     0.0504103  
H378     H      0.589270000000     0.979250000000     0.084490000000     0.0509122  
H379     H      0.470330000000     0.976980000000     0.989630000000     0.0353698  
H380     H      0.581900000000     0.089730000000     0.088240000000     0.0266264  
H381     H      0.603520000000     0.027660000000     0.022630000000     0.0514553  
H382     H      0.479990000000     0.982530000000     0.080940000000     0.0506507  
H383     H      0.610760000000     0.048780000000     0.107860000000     0.0352991  
H384     H      0.583450000000     0.921960000000     0.010300000000     0.0258588  
H385     H      0.463370000000     0.779640000000     0.113560000000     0.0421452  
H386     H      0.564900000000     0.837150000000     0.190040000000     0.0254515  
H387     H      0.588570000000     0.744240000000     0.086380000000     0.0255446  
H388     H      0.612210000000     0.779990000000     0.121260000000     0.0422172  
H389     H      0.605760000000     0.812740000000     0.156360000000     0.0423681  
H390     H      0.454170000000     0.812510000000     0.148530000000     0.0421496  
H391     H      0.466450000000     0.698060000000     0.093940000000     0.0347324  
H392     H      0.600650000000     0.887030000000     0.180480000000     0.0350024  
H393     H      0.592910000000     0.729820000000     0.138920000000     0.0516359  
H394     H      0.477090000000     0.865140000000     0.133910000000     0.0509616  
H395     H      0.618100000000     0.697380000000     0.102410000000     0.0349449  
H396     H      0.477560000000     0.838740000000     0.185530000000     0.0257657  
H397     H      0.475010000000     0.729270000000     0.132640000000     0.0520399  
H398     H      0.589240000000     0.865710000000     0.140040000000     0.0519728  
H399     H      0.448670000000     0.888930000000     0.171690000000     0.0350893  
H400     H      0.502930000000     0.745020000000     0.081910000000     0.0253054  
H401     H      0.452430000000     0.317110000000     0.143440000000     0.0430745  
H402     H      0.586280000000     0.207070000000     0.156070000000     0.0305401  
H403     H      0.585920000000     0.391990000000     0.160020000000     0.0290373  
H404     H      0.608670000000     0.312390000000     0.143540000000     0.0431788  
H405     H      0.607260000000     0.282280000000     0.176690000000     0.0427151  
H406     H      0.451780000000     0.283900000000     0.175770000000     0.0427378  
H407     H      0.457150000000     0.402970000000     0.131000000000     0.0357136  
H408     H      0.603040000000     0.192890000000     0.185220000000     0.0353771  
H409     H      0.573410000000     0.322520000000     0.118850000000     0.0504959  
H410     H      0.487250000000     0.267610000000     0.199540000000     0.0491827  
H411     H      0.609010000000     0.398440000000     0.131210000000     0.0358708  
H412     H      0.473360000000     0.209010000000     0.154790000000     0.0310329  
H413     H      0.488360000000     0.324940000000     0.118780000000     0.0503098  
H414     H      0.570300000000     0.267300000000     0.200100000000     0.0490039  
H415     H      0.453300000000     0.194600000000     0.183430000000     0.034929   
H416     H      0.479460000000     0.395190000000     0.159890000000     0.0296663  
H417     H      0.975170000000     0.513210000000     0.297920000000     0.0427941  
H418     H      0.029630000000     0.645570000000     0.231200000000     0.0260785  
H419     H      0.101290000000     0.592530000000     0.314680000000     0.0270532  
H420     H      0.053990000000     0.649690000000     0.291760000000     0.0428532  
H421     H      0.080920000000     0.614970000000     0.261480000000     0.0429892  
H422     H      0.941340000000     0.545800000000     0.265650000000     0.0427799  
H423     H      0.003790000000     0.505410000000     0.338280000000     0.033772   
H424     H      0.075940000000     0.610240000000     0.218190000000     0.0347478  
H425     H      0.005800000000     0.645520000000     0.311390000000     0.0511609  
H426     H      0.987780000000     0.509680000000     0.252560000000     0.0511289  
H427     H      0.079780000000     0.639900000000     0.333080000000     0.0353251  
H428     H      0.944530000000     0.605750000000     0.235180000000     0.0280835  
H429     H      0.957350000000     0.563970000000     0.315470000000     0.0496081  
H430     H      0.077370000000     0.554890000000     0.250820000000     0.0525865  
H431     H      0.936290000000     0.546500000000     0.222880000000     0.0351695  
H432     H      0.051330000000     0.505980000000     0.317380000000     0.0298555  
H433     H      0.103970000000     0.442140000000     0.009730000000     0.0423738  
H434     H      0.970860000000     0.510860000000     0.060950000000     0.0293397  
H435     H      0.976860000000     0.412570000000     0.981430000000     0.02678    
H436     H      0.949700000000     0.458400000000     0.014880000000     0.0431813  
H437     H      0.955020000000     0.425460000000     0.046820000000     0.0421113  
H438     H      0.108990000000     0.456220000000     0.045530000000     0.0421988  
H439     H      0.099060000000     0.463890000000     0.967910000000     0.0356926  
H440     H      0.949290000000     0.471230000000     0.083300000000     0.035412   
H441     H      0.980900000000     0.511070000000     0.006030000000     0.0535468  
H442     H      0.081710000000     0.415840000000     0.065460000000     0.0488302  
H443     H      0.946010000000     0.466780000000     0.973210000000     0.0355914  
H444     H      0.071240000000     0.526440000000     0.062570000000     0.0290972  
H445     H      0.083500000000     0.503090000000     0.004580000000     0.0509776  
H446     H      0.995490000000     0.403310000000     0.067290000000     0.050323   
H447     H      0.100980000000     0.492090000000     0.084530000000     0.0361514  
H448     H      0.068760000000     0.409810000000     0.976560000000     0.0266657  
H449     H      0.946240000000     0.051960000000     0.242490000000     0.0430889  
H450     H      0.111940000000     0.056820000000     0.293420000000     0.0257874  
H451     H      0.032750000000     0.162050000000     0.217280000000     0.0251594  
H452     H      0.088920000000     0.114630000000     0.239460000000     0.0426988  
H453     H      0.074170000000     0.125930000000     0.274910000000     0.042942   
H454     H      0.990970000000     0.993530000000     0.264930000000     0.0440094  
H455     H      0.932360000000     0.078440000000     0.201940000000     0.0353403  
H456     H      0.092470000000     0.098810000000     0.315190000000     0.0337265  
H457     H      0.080490000000     0.062900000000     0.221710000000     0.0541909  
H458     H      0.968140000000     0.034860000000     0.286470000000     0.0515346  
H459     H      0.074800000000     0.135140000000     0.197690000000     0.0331878  
H460     H      0.063290000000     0.978870000000     0.286830000000     0.0278713  
H461     H      0.985850000000     0.021660000000     0.222510000000     0.0518852  
H462     H      0.022290000000     0.119820000000     0.292190000000     0.0540972  
H463     H      0.012120000000     0.967900000000     0.304960000000     0.0346412  
H464     H      0.950130000000     0.127210000000     0.220710000000     0.0268992  
H465     H      0.957780000000     0.921120000000     0.997100000000     0.0423911  
H466     H      0.071560000000     0.922780000000     0.064900000000     0.0270776  
H467     H      0.073490000000     0.018110000000     0.973050000000     0.0292708  
H468     H      0.110820000000     0.953640000000     0.994420000000     0.0423376  
H469     H      0.107230000000     0.951190000000     0.030830000000     0.0423913  
H470     H      0.952730000000     0.970120000000     0.024320000000     0.0433716  
H471     H      0.949580000000     0.955950000000     0.957750000000     0.0350518  
H472     H      0.101420000000     0.978150000000     0.071840000000     0.0359208  
H473     H      0.083000000000     0.907740000000     0.977650000000     0.0484939  
H474     H      0.986770000000     0.021320000000     0.032240000000     0.0532138  
H475     H      0.100170000000     0.976680000000     0.953080000000     0.0359566  
H476     H      0.977750000000     0.926130000000     0.059410000000     0.0272233  
H477     H      0.997450000000     0.894310000000     0.977480000000     0.0502017  
H478     H      0.085480000000     0.012190000000     0.033930000000     0.0505136  
H479     H      0.948470000000     0.982300000000     0.065820000000     0.035907   
H480     H      0.970020000000     0.001970000000     0.977330000000     0.0294607  
H481     H      0.936310000000     0.821820000000     0.162220000000     0.0422846  
H482     H      0.053760000000     0.714150000000     0.107100000000     0.0258395  
H483     H      0.054000000000     0.877130000000     0.189120000000     0.0250169  
H484     H      0.086440000000     0.820180000000     0.163580000000     0.0422078  
H485     H      0.087600000000     0.764410000000     0.135650000000     0.0423436  
H486     H      0.935580000000     0.764440000000     0.135370000000     0.0423807  
H487     H      0.935780000000     0.912510000000     0.166790000000     0.0342373  
H488     H      0.087990000000     0.676770000000     0.126280000000     0.0350835  
H489     H      0.071580000000     0.854360000000     0.137910000000     0.0512529  
H490     H      0.954180000000     0.728150000000     0.159690000000     0.0511463  
H491     H      0.088530000000     0.910720000000     0.168450000000     0.0346115  
H492     H      0.966390000000     0.711580000000     0.107540000000     0.0262079  
H493     H      0.953780000000     0.855310000000     0.136740000000     0.0519637  
H494     H      0.068310000000     0.726880000000     0.159440000000     0.051809   
H495     H      0.935030000000     0.674830000000     0.128150000000     0.0352353  
H496     H      0.967570000000     0.878250000000     0.188170000000     0.0245038  
H497     H      0.943510000000     0.305980000000     0.155140000000     0.0427981  
H498     H      0.060610000000     0.228540000000     0.087190000000     0.0247802  
H499     H      0.064300000000     0.342650000000     0.187930000000     0.0255426  
H500     H      0.094740000000     0.306340000000     0.154280000000     0.0423148  
H501     H      0.093020000000     0.269460000000     0.119070000000     0.0421297  
H502     H      0.943640000000     0.271030000000     0.119330000000     0.0423566  
H503     H      0.943300000000     0.386470000000     0.175110000000     0.0343467  
H504     H      0.093480000000     0.183760000000     0.103030000000     0.0344669  
H505     H      0.076850000000     0.355200000000     0.135540000000     0.051461   
H506     H      0.958170000000     0.223380000000     0.139510000000     0.0529985  
H507     H      0.095760000000     0.389430000000     0.172710000000     0.0348259  
H508     H      0.975360000000     0.229950000000     0.087220000000     0.0249975  
H509     H      0.960560000000     0.355690000000     0.136680000000     0.0530072  
H510     H      0.077900000000     0.222420000000     0.139450000000     0.0526146  
H511     H      0.941150000000     0.185910000000     0.102910000000     0.0346312  
H512     H      0.978310000000     0.340010000000     0.188590000000     0.0253502  
N1       N      0.667010000000     0.530130000000     0.585330000000    -0.175727   
N2       N      0.874550000000     0.571200000000     0.651340000000    -0.174904   
N3       N      0.394490000000     0.538660000000     0.627890000000    -0.175868   
N4       N      0.159390000000     0.596220000000     0.661060000000    -0.175564   
N5       N      0.891750000000     0.057440000000     0.619410000000    -0.174729   
N6       N      0.665000000000     0.065810000000     0.673480000000    -0.174678   
N7       N      0.385960000000     0.055050000000     0.706120000000    -0.175373   
N8       N      0.175140000000     0.038910000000     0.640130000000    -0.175247   
N9       N      0.491170000000     0.571410000000     0.542260000000    -0.175341   
N10      N      0.615940000000     0.581870000000     0.436020000000    -0.175238   
N11      N      0.487420000000     0.044810000000     0.621320000000    -0.175115   
N12      N      0.552780000000     0.033580000000     0.502440000000    -0.174947   
N13      N      0.104020000000     0.560020000000     0.474380000000    -0.17493    
N14      N      0.035760000000     0.562790000000     0.589000000000    -0.174772   
N15      N      0.729520000000     0.609770000000     0.353640000000    -0.176102   
N16      N      0.934810000000     0.576100000000     0.421210000000    -0.176012   
N17      N      0.450290000000     0.569900000000     0.379030000000    -0.174745   
N18      N      0.214740000000     0.556720000000     0.392260000000    -0.174647   
N19      N      0.056470000000     0.041960000000     0.562200000000    -0.175141   
N20      N      0.972370000000     0.032660000000     0.446410000000    -0.175145   
N21      N      0.655830000000     0.031900000000     0.419230000000    -0.174629   
N22      N      0.876090000000     0.040790000000     0.360130000000    -0.175281   
N23      N      0.152900000000     0.023140000000     0.396920000000    -0.174316   
N24      N      0.377410000000     0.010970000000     0.452540000000    -0.174872   
N25      N      0.568880000000     0.488850000000     0.789820000000    -0.174375   
N26      N      0.572370000000     0.491520000000     0.670760000000    -0.174771   
N27      N      0.580160000000     0.050150000000     0.856750000000    -0.175214   
N28      N      0.558620000000     0.077610000000     0.755820000000    -0.17515    
N29      N      0.554860000000     0.656340000000     0.843140000000    -0.175122   
N30      N      0.553830000000     0.873250000000     0.907950000000    -0.174724   
N31      N      0.571450000000     0.156770000000     0.940160000000    -0.174898   
N32      N      0.568070000000     0.371220000000     0.872740000000    -0.174419   
N33      N      0.998730000000     0.610730000000     0.725570000000    -0.174756   
N34      N      0.003570000000     0.588480000000     0.841500000000    -0.174889   
N35      N      0.992170000000     0.062800000000     0.821200000000    -0.174671   
N36      N      0.015680000000     0.052290000000     0.700550000000    -0.174633   
N37      N      0.010470000000     0.878860000000     0.867400000000    -0.175799   
N38      N      0.015380000000     0.665210000000     0.933340000000    -0.175734   
N39      N      0.010700000000     0.400610000000     0.874950000000    -0.175814   
N40      N      0.006950000000     0.156310000000     0.910040000000    -0.175627   
N41      N      0.536620000000     0.580690000000     0.183780000000    -0.175068   
N42      N      0.565760000000     0.601450000000     0.298690000000    -0.174956   
N43      N      0.539740000000     0.509350000000     0.048310000000    -0.174547   
N44      N      0.552660000000     0.549130000000     0.926390000000    -0.174662   
N45      N      0.519200000000     0.038440000000     0.247790000000    -0.174718   
N46      N      0.483480000000     0.006970000000     0.367270000000    -0.174974   
N47      N      0.533910000000     0.048480000000     0.108290000000    -0.17519    
N48      N      0.547030000000     0.974780000000     0.990720000000    -0.175007   
N49      N      0.524930000000     0.893880000000     0.175110000000    -0.174941   
N50      N      0.541770000000     0.691950000000     0.100280000000    -0.175051   
N51      N      0.528430000000     0.185630000000     0.177420000000    -0.173941   
N52      N      0.533270000000     0.409490000000     0.134980000000    -0.174098   
N53      N      0.005760000000     0.578390000000     0.218280000000    -0.174759   
N54      N      0.046560000000     0.570020000000     0.337400000000    -0.174563   
N55      N      0.023970000000     0.489900000000     0.085160000000    -0.174334   
N56      N      0.022270000000     0.467080000000     0.968270000000    -0.174745   
N57      N      0.051610000000     0.033110000000     0.312110000000    -0.175726   
N58      N      0.004360000000     0.104370000000     0.197610000000    -0.175831   
N59      N      0.024570000000     0.980690000000     0.071400000000    -0.174416   
N60      N      0.023280000000     0.976830000000     0.954140000000    -0.174196   
N61      N      0.011640000000     0.671280000000     0.129440000000    -0.175504   
N62      N      0.012350000000     0.915490000000     0.164800000000    -0.176005   
N63      N      0.017230000000     0.179550000000     0.105810000000    -0.175626   
N64      N      0.019280000000     0.393570000000     0.171630000000    -0.175689   
O1       O      0.049410000000     0.079820000000     0.166570000000    -0.399221   
O2       O      0.059550000000     0.014020000000     0.103730000000    -0.398853   
O3       O      0.055900000000     0.112570000000     0.119680000000    -0.400911   
O4       O      0.053230000000     0.981150000000     0.150800000000    -0.400297   
O5       O      0.974210000000     0.978950000000     0.147270000000    -0.40158    
O6       O      0.976570000000     0.112300000000     0.118130000000    -0.400476   
O7       O      0.980480000000     0.014800000000     0.100670000000    -0.400866   
O8       O      0.970260000000     0.074720000000     0.164520000000    -0.402501   
O9       O      0.059340000000     0.512630000000     0.119410000000    -0.399297   
O10      O      0.050200000000     0.559240000000     0.186110000000    -0.398126   
O11      O      0.056830000000     0.465490000000     0.163710000000    -0.399801   
O12      O      0.052960000000     0.604550000000     0.141580000000    -0.40166    
O13      O      0.973690000000     0.601330000000     0.140390000000    -0.399986   
O14      O      0.977680000000     0.461480000000     0.161380000000    -0.401835   
O15      O      0.971160000000     0.552260000000     0.184550000000    -0.400418   
O16      O      0.980160000000     0.509400000000     0.117470000000    -0.400362   
O17      O      0.562270000000     0.035510000000     0.214070000000    -0.400173   
O18      O      0.569730000000     0.042130000000     0.143920000000    -0.40114    
O19      O      0.566890000000     0.112400000000     0.180100000000    -0.399153   
O20      O      0.565220000000     0.965790000000     0.177580000000    -0.40046    
O21      O      0.485920000000     0.966970000000     0.176190000000    -0.398627   
O22      O      0.487710000000     0.113710000000     0.177430000000    -0.400385   
O23      O      0.490490000000     0.042230000000     0.141880000000    -0.400559   
O24      O      0.483100000000     0.040450000000     0.212130000000    -0.399619   
O25      O      0.576490000000     0.564070000000     0.150130000000    -0.402931   
O26      O      0.578230000000     0.531040000000     0.081820000000    -0.401305   
O27      O      0.579430000000     0.619980000000     0.108090000000    -0.39951    
O28      O      0.575090000000     0.477190000000     0.124200000000    -0.400759   
O29      O      0.495800000000     0.480270000000     0.124700000000    -0.399081   
O30      O      0.500190000000     0.621650000000     0.106050000000    -0.400224   
O31      O      0.498900000000     0.531250000000     0.081250000000    -0.398419   
O32      O      0.497380000000     0.570830000000     0.149180000000    -0.398551   
O33      O      0.055420000000     0.998030000000     0.918900000000    -0.398764   
O34      O      0.039800000000     0.044200000000     0.852370000000    -0.398032   
O35      O      0.046940000000     0.089660000000     0.896850000000    -0.401993   
O36      O      0.048690000000     0.950670000000     0.874680000000    -0.399964   
O37      O      0.969860000000     0.946580000000     0.878840000000    -0.401524   
O38      O      0.967850000000     0.086580000000     0.899740000000    -0.399973   
O39      O      0.961020000000     0.037200000000     0.855790000000    -0.401234   
O40      O      0.976500000000     0.994890000000     0.922640000000    -0.400227   
O41      O      0.057600000000     0.499890000000     0.935920000000    -0.398802   
O42      O      0.048270000000     0.564760000000     0.872820000000    -0.398792   
O43      O      0.054210000000     0.598200000000     0.919590000000    -0.400822   
O44      O      0.051690000000     0.466260000000     0.888930000000    -0.399982   
O45      O      0.972620000000     0.464310000000     0.892260000000    -0.402191   
O46      O      0.974880000000     0.597840000000     0.921100000000    -0.401071   
O47      O      0.969100000000     0.559750000000     0.874720000000    -0.402338   
O48      O      0.978480000000     0.500620000000     0.938760000000    -0.401053   
O49      O      0.515460000000     0.999070000000     0.955880000000    -0.399405   
O50      O      0.532280000000     0.038600000000     0.888520000000    -0.399044   
O51      O      0.519320000000     0.947920000000     0.912880000000    -0.398837   
O52      O      0.527870000000     0.089040000000     0.931610000000    -0.40061    
O53      O      0.606910000000     0.083030000000     0.933610000000    -0.3986     
O54      O      0.597650000000     0.940190000000     0.917810000000    -0.400427   
O55      O      0.610540000000     0.026710000000     0.891770000000    -0.402651   
O56      O      0.594300000000     0.994660000000     0.959740000000    -0.401562   
O57      O      0.596490000000     0.531300000000     0.893850000000    -0.399862   
O58      O      0.604620000000     0.503530000000     0.824880000000    -0.39992    
O59      O      0.597210000000     0.588220000000     0.852350000000    -0.401229   
O60      O      0.604260000000     0.444630000000     0.866350000000    -0.398846   
O61      O      0.525060000000     0.440310000000     0.865650000000    -0.399202   
O62      O      0.518160000000     0.583290000000     0.849710000000    -0.398313   
O63      O      0.525710000000     0.494950000000     0.823460000000    -0.399043   
O64      O      0.517310000000     0.528540000000     0.891870000000    -0.399716   
O65      O      0.028750000000     0.992620000000     0.344920000000    -0.399728   
O66      O      0.992920000000     0.992010000000     0.413130000000    -0.399025   
O67      O      0.941960000000     0.996640000000     0.370090000000    -0.400825   
O68      O      0.081330000000     0.987430000000     0.387860000000    -0.398733   
O69      O      0.085420000000     0.067790000000     0.389970000000    -0.399347   
O70      O      0.947150000000     0.077100000000     0.369650000000    -0.397907   
O71      O      0.995090000000     0.072600000000     0.413390000000    -0.4009     
O72      O      0.038290000000     0.072690000000     0.346350000000    -0.400485   
O73      O      0.054480000000     0.528090000000     0.371450000000    -0.400482   
O74      O      0.087930000000     0.522340000000     0.439790000000    -0.400256   
O75      O      0.001250000000     0.530610000000     0.413560000000    -0.400984   
O76      O      0.141760000000     0.520650000000     0.397750000000    -0.399101   
O77      O      0.147550000000     0.600950000000     0.399650000000    -0.403869   
O78      O      0.006950000000     0.611060000000     0.413420000000    -0.403172   
O79      O      0.090750000000     0.602870000000     0.440900000000    -0.400739   
O80      O      0.064430000000     0.608130000000     0.371700000000    -0.399051   
O81      O      0.505030000000     0.974260000000     0.402180000000    -0.401337   
O82      O      0.536030000000     0.987160000000     0.470480000000    -0.40043    
O83      O      0.449450000000     0.975400000000     0.444180000000    -0.397652   
O84      O      0.590100000000     0.986400000000     0.428430000000    -0.399479   
O85      O      0.582150000000     0.066210000000     0.424700000000    -0.399108   
O86      O      0.443210000000     0.055750000000     0.443090000000    -0.400486   
O87      O      0.531040000000     0.067380000000     0.467630000000    -0.399052   
O88      O      0.493440000000     0.053890000000     0.399820000000    -0.397777   
O89      O      0.583690000000     0.556630000000     0.330950000000    -0.401264   
O90      O      0.607100000000     0.546500000000     0.400220000000    -0.400531   
O91      O      0.524930000000     0.540970000000     0.371050000000    -0.404188   
O92      O      0.665100000000     0.561050000000     0.359570000000    -0.405563   
O93      O      0.655690000000     0.640960000000     0.362220000000    -0.398311   
O94      O      0.515140000000     0.620280000000     0.375990000000    -0.399276   
O95      O      0.600310000000     0.626560000000     0.403420000000    -0.400646   
O96      O      0.569800000000     0.635660000000     0.334830000000    -0.399877   
O97      O      0.017570000000     0.010380000000     0.666290000000    -0.400108   
O98      O      0.042520000000     0.004680000000     0.597090000000    -0.400285   
O99      O      0.101470000000     0.002960000000     0.637620000000    -0.398398   
O100     O      0.959240000000     0.012490000000     0.625620000000    -0.399677   
O101     O      0.964400000000     0.092920000000     0.626130000000    -0.399647   
O102     O      0.107160000000     0.083150000000     0.634780000000    -0.402186   
O103     O      0.044920000000     0.085210000000     0.595730000000    -0.399646   
O104     O      0.028240000000     0.090310000000     0.665680000000    -0.398426   
O105     O      0.030080000000     0.533490000000     0.626390000000    -0.395865   
O106     O      0.007770000000     0.557970000000     0.695230000000    -0.397563   
O107     O      0.948580000000     0.538160000000     0.656470000000    -0.400228   
O108     O      0.090960000000     0.552520000000     0.666010000000    -0.397644   
O109     O      0.086260000000     0.629760000000     0.654930000000    -0.400957   
O110     O      0.942300000000     0.618010000000     0.652110000000    -0.398557   
O111     O      0.010580000000     0.637380000000     0.688470000000    -0.402008   
O112     O      0.019560000000     0.612160000000     0.619720000000    -0.405418   
O113     O      0.537470000000     0.108940000000     0.720590000000    -0.402026   
O114     O      0.505360000000     0.092600000000     0.652630000000    -0.40141    
O115     O      0.452040000000     0.097620000000     0.694850000000    -0.400914   
O116     O      0.592630000000     0.103500000000     0.678580000000    -0.398333   
O117     O      0.596940000000     0.023250000000     0.681440000000    -0.401871   
O118     O      0.457700000000     0.017780000000     0.699510000000    -0.400101   
O119     O      0.508950000000     0.012480000000     0.656510000000    -0.399212   
O120     O      0.546510000000     0.029110000000     0.724100000000    -0.399167   
O121     O      0.560500000000     0.550810000000     0.643390000000    -0.396642   
O122     O      0.511520000000     0.591630000000     0.579750000000    -0.396086   
O123     O      0.468360000000     0.572450000000     0.624850000000    -0.399283   
O124     O      0.602250000000     0.570930000000     0.599010000000    -0.40215    
O125     O      0.596390000000     0.491360000000     0.593230000000    -0.397036   
O126     O      0.455920000000     0.498560000000     0.610420000000    -0.397916   
O127     O      0.508980000000     0.513970000000     0.569360000000    -0.402913   
O128     O      0.542310000000     0.474410000000     0.634780000000    -0.401694   


