data_structure

_audit_creation_method RASPA-1.0
_audit_creation_date 2023-5-25
_audit_author_name 'Poobodin Mano'

_cell_length_a    29.2064
_cell_length_b    27.3865
_cell_length_c    29.1918
_cell_angle_alpha 90
_cell_angle_beta  90.0006
_cell_angle_gamma 90.0041
_cell_volume      23349.4

_symmetry_cell_setting          triclinic
_symmetry_space_group_name_Hall 'P 1'
_symmetry_space_group_name_H-M  'P 1'
_symmetry_Int_Tables_number     1

_symmetry_equiv_pos_as_xyz 'x,y,z'

loop_
_atom_site_label
_atom_site_type_symbol
_atom_site_fract_x
_atom_site_fract_y
_atom_site_fract_z
_atom_site_charge
C1       C      0.987250000000     0.013240000000     0.098580000000     0.472313   
C2       C      0.985520000000     0.004880000000     0.924730000000     0.476908   
C3       C      0.898020000000     0.009090000000     0.013010000000     0.480231   
C4       C      0.072150000000     0.009420000000     0.011460000000     0.477177   
C5       C      0.964290000000     0.009230000000     0.595690000000     0.476208   
C6       C      0.010770000000     0.015950000000     0.428000000000     0.473716   
C7       C      0.902510000000     0.006290000000     0.487460000000     0.474502   
C8       C      0.070310000000     0.009220000000     0.533370000000     0.475066   
C9       C      0.989970000000     0.512160000000     0.084040000000     0.475376   
C10      C      0.987050000000     0.505260000000     0.909980000000     0.472529   
C11      C      0.902180000000     0.509900000000     0.997780000000     0.477288   
C12      C      0.076230000000     0.506650000000     0.995250000000     0.477578   
C13      C      0.976030000000     0.506100000000     0.583100000000     0.474672   
C14      C      0.985530000000     0.511380000000     0.409290000000     0.476509   
C15      C      0.894280000000     0.508590000000     0.490390000000     0.47611    
C16      C      0.067950000000     0.514840000000     0.500930000000     0.477628   
C17      C      0.488930000000     0.005550000000     0.098800000000     0.476674   
C18      C      0.482850000000     0.004160000000     0.924860000000     0.47564    
C19      C      0.397800000000     0.007750000000     0.015740000000     0.477157   
C20      C      0.571760000000     0.008190000000     0.010220000000     0.473773   
C21      C      0.488540000000     0.006660000000     0.598120000000     0.475043   
C22      C      0.487510000000     0.005500000000     0.423980000000     0.478276   
C23      C      0.399270000000     0.011800000000     0.511540000000     0.474699   
C24      C      0.573220000000     0.004540000000     0.510410000000     0.473688   
C25      C      0.489490000000     0.510370000000     0.094330000000     0.477666   
C26      C      0.490230000000     0.505620000000     0.920180000000     0.476485   
C27      C      0.402730000000     0.502870000000     0.007170000000     0.473254   
C28      C      0.576670000000     0.506340000000     0.007260000000     0.478704   
C29      C      0.484490000000     0.506660000000     0.595010000000     0.477561   
C30      C      0.479280000000     0.507450000000     0.420870000000     0.476467   
C31      C      0.394080000000     0.512030000000     0.510770000000     0.47252    
C32      C      0.567890000000     0.504270000000     0.505410000000     0.47589    
C33      C      0.481970000000     0.458720000000     0.666780000000     0.0153596  
C34      C      0.495520000000     0.550590000000     0.846760000000     0.0166048  
C35      C      0.494240000000     0.456900000000     0.848820000000     0.0577411  
C36      C      0.466920000000     0.548890000000     0.802860000000    -0.105421   
C37      C      0.513190000000     0.457010000000     0.708870000000    -0.10363    
C38      C      0.466770000000     0.457760000000     0.803800000000    -0.114895   
C39      C      0.504600000000     0.502420000000     0.737150000000     0.0213419  
C40      C      0.478870000000     0.503030000000     0.776520000000     0.0260085  
C41      C      0.487580000000     0.551910000000     0.668360000000     0.0148032  
C42      C      0.518120000000     0.547720000000     0.710800000000    -0.10341    
C43      C      0.474620000000     0.555350000000     0.348960000000     0.0148168  
C44      C      0.493510000000     0.465080000000     0.167580000000     0.0171811  
C45      C      0.490820000000     0.558700000000     0.166160000000     0.058014   
C46      C      0.462270000000     0.465670000000     0.209590000000    -0.105545   
C47      C      0.505780000000     0.555680000000     0.306740000000    -0.102916   
C48      C      0.461950000000     0.556830000000     0.210390000000    -0.114369   
C49      C      0.495990000000     0.510460000000     0.278420000000     0.0203689  
C50      C      0.472800000000     0.510920000000     0.237440000000     0.0252651  
C51      C      0.475350000000     0.462430000000     0.347310000000     0.0154293  
C52      C      0.506740000000     0.464500000000     0.305320000000    -0.103354   
C53      C      0.521040000000     0.864630000000     0.532060000000    -0.00227286 
C54      C      0.450400000000     0.651900000000     0.480080000000     0.00604018 
C55      C      0.498170000000     0.652300000000     0.549560000000     0.0474855  
C56      C      0.463520000000     0.704450000000     0.467720000000    -0.0957012  
C57      C      0.512050000000     0.811220000000     0.544110000000    -0.089153   
C58      C      0.516090000000     0.704000000000     0.540070000000    -0.106503   
C59      C      0.486900000000     0.783110000000     0.506510000000     0.0115169  
C60      C      0.486060000000     0.732860000000     0.506820000000     0.0212074  
C61      C      0.468320000000     0.865630000000     0.469170000000    -8.52441e-05
C62      C      0.455540000000     0.811710000000     0.474270000000    -0.0903921  
C63      C      0.515340000000     0.366030000000     0.532210000000    -0.00364096 
C64      C      0.456950000000     0.150390000000     0.477600000000     0.00434618 
C65      C      0.497180000000     0.153200000000     0.551550000000     0.046686   
C66      C      0.469790000000     0.203100000000     0.465710000000    -0.0951614  
C67      C      0.506290000000     0.312840000000     0.544750000000    -0.0887411  
C68      C      0.513860000000     0.205730000000     0.543420000000    -0.106223   
C69      C      0.486050000000     0.283200000000     0.505350000000     0.0114688  
C70      C      0.486770000000     0.232940000000     0.506550000000     0.0209256  
C71      C      0.468310000000     0.364780000000     0.465000000000    -7.5016e-05 
C72      C      0.457400000000     0.310180000000     0.469480000000    -0.0904601  
C73      C      0.512800000000     0.648810000000     0.041720000000    -0.00218812 
C74      C      0.452680000000     0.862450000000     0.980790000000     0.00637487 
C75      C      0.527410000000     0.861640000000     0.019720000000     0.0470349  
C76      C      0.442200000000     0.809490000000     0.994210000000    -0.0956634  
C77      C      0.523840000000     0.702180000000     0.031640000000    -0.0891675  
C78      C      0.520730000000     0.809200000000     0.037100000000    -0.106175   
C79      C      0.483420000000     0.730540000000     0.011720000000     0.0115095  
C80      C      0.483810000000     0.780820000000     0.011220000000     0.0209873  
C81      C      0.444140000000     0.647790000000     0.996770000000     0.000455906
C82      C      0.447210000000     0.702210000000     0.984690000000    -0.0904791  
C83      C      0.520900000000     0.147980000000     0.985470000000    -0.00074766 
C84      C      0.461140000000     0.362840000000     0.043430000000     0.00671115 
C85      C      0.498380000000     0.360400000000     0.967860000000     0.0466785  
C86      C      0.475260000000     0.310240000000     0.054680000000    -0.0960314  
C87      C      0.511260000000     0.201400000000     0.974050000000    -0.0897565  
C88      C      0.516790000000     0.308550000000     0.975520000000    -0.106044   
C89      C      0.492020000000     0.230500000000     0.014380000000     0.012023   
C90      C      0.491600000000     0.280760000000     0.013270000000     0.021433   
C91      C      0.477250000000     0.148570000000     0.054970000000    -0.000558052
C92      C      0.465460000000     0.202970000000     0.051410000000    -0.0899765  
C93      C      0.496000000000     0.051790000000     0.671480000000     0.0143256  
C94      C      0.476940000000     0.958210000000     0.851970000000     0.016995   
C95      C      0.481400000000     0.051810000000     0.852820000000     0.0580077  
C96      C      0.506900000000     0.957960000000     0.808900000000    -0.105119   
C97      C      0.464900000000     0.051400000000     0.713710000000    -0.102366   
C98      C      0.510330000000     0.049070000000     0.808810000000    -0.11476    
C99      C      0.474070000000     0.005120000000     0.740770000000     0.0198793  
C100     C      0.497610000000     0.003950000000     0.781540000000     0.0255292  
C101     C      0.493080000000     0.959090000000     0.670230000000     0.0150339  
C102     C      0.462360000000     0.960200000000     0.712770000000    -0.102671   
C103     C      0.487050000000     0.051910000000     0.351190000000     0.0148971  
C104     C      0.495720000000     0.959260000000     0.171280000000     0.0171809  
C105     C      0.495290000000     0.053000000000     0.170740000000     0.0586549  
C106     C      0.467240000000     0.960280000000     0.215230000000    -0.105174   
C107     C      0.518250000000     0.049480000000     0.309100000000    -0.102942   
C108     C      0.468600000000     0.051460000000     0.216240000000    -0.114765   
C109     C      0.505910000000     0.004350000000     0.281810000000     0.0202028  
C110     C      0.480160000000     0.005260000000     0.242440000000     0.0253226  
C111     C      0.484080000000     0.958730000000     0.351470000000     0.0156503  
C112     C      0.515290000000     0.958550000000     0.309310000000    -0.103138   
C113     C      0.823760000000     0.460920000000     0.474740000000     0.0154324  
C114     C      0.642400000000     0.547390000000     0.508360000000     0.017003   
C115     C      0.638390000000     0.454010000000     0.503760000000     0.0583357  
C116     C      0.683210000000     0.546290000000     0.475610000000    -0.10534    
C117     C      0.782310000000     0.453020000000     0.506030000000    -0.103028   
C118     C      0.681350000000     0.455010000000     0.473000000000    -0.115024   
C119     C      0.752370000000     0.498290000000     0.504190000000     0.020164   
C120     C      0.710110000000     0.499810000000     0.483560000000     0.0256736  
C121     C      0.819590000000     0.551870000000     0.489710000000     0.0151531  
C122     C      0.778040000000     0.543180000000     0.520700000000    -0.102827   
C123     C      0.323340000000     0.561030000000     0.520250000000     0.0144377  
C124     C      0.142050000000     0.471090000000     0.498960000000     0.0173084  
C125     C      0.138680000000     0.564720000000     0.503130000000     0.0586072  
C126     C      0.183780000000     0.472350000000     0.530540000000    -0.105798   
C127     C      0.280160000000     0.565010000000     0.490590000000    -0.102682   
C128     C      0.182600000000     0.563400000000     0.532500000000    -0.11516    
C129     C      0.251370000000     0.519490000000     0.497330000000     0.0200568  
C130     C      0.210650000000     0.518450000000     0.520930000000     0.0258989  
C131     C      0.319710000000     0.468530000000     0.512580000000     0.0145561  
C132     C      0.277200000000     0.474220000000     0.482400000000    -0.102718   
C133     C      0.829050000000     0.464220000000     0.996240000000     0.0159014  
C134     C      0.648250000000     0.554450000000     0.011800000000     0.0170246  
C135     C      0.649890000000     0.460760000000     0.008710000000     0.057741   
C136     C      0.691020000000     0.555640000000     0.981550000000    -0.105724   
C137     C      0.787400000000     0.466660000000     0.027930000000    -0.103496   
C138     C      0.693980000000     0.464530000000     0.979960000000    -0.114609   
C139     C      0.760040000000     0.511880000000     0.016060000000     0.0206703  
C140     C      0.719700000000     0.510950000000     0.991860000000     0.0259457  
C141     C      0.829990000000     0.557260000000     0.993860000000     0.015441   
C142     C      0.787720000000     0.557730000000     0.024980000000    -0.103657   
C143     C      0.329470000000     0.548450000000     0.008000000000     0.0152851  
C144     C      0.147740000000     0.458360000000     0.990360000000     0.0168816  
C145     C      0.149630000000     0.551950000000     0.992170000000     0.058064   
C146     C      0.190370000000     0.457350000000     0.020840000000    -0.105553   
C147     C      0.288300000000     0.545400000000     0.975730000000    -0.103004   
C148     C      0.193550000000     0.548570000000     0.021250000000    -0.114401   
C149     C      0.260650000000     0.500410000000     0.987860000000     0.0202596  
C150     C      0.219350000000     0.501850000000     0.010420000000     0.025225   
C151     C      0.330480000000     0.455600000000     0.012030000000     0.0147155  
C152     C      0.288530000000     0.454340000000     0.980440000000    -0.103179   
C153     C      0.989200000000     0.456560000000     0.838420000000     0.0145173  
C154     C      0.970630000000     0.549490000000     0.657380000000     0.0169189  
C155     C      0.968990000000     0.456070000000     0.653560000000     0.0575219  
C156     C      0.000840000000     0.546060000000     0.700030000000    -0.104764   
C157     C      0.957230000000     0.455530000000     0.796750000000    -0.102865   
C158     C      0.997100000000     0.454820000000     0.698300000000    -0.114749   
C159     C      0.965840000000     0.500710000000     0.767970000000     0.0200628  
C160     C      0.988170000000     0.500440000000     0.726500000000     0.0252874  
C161     C      0.987700000000     0.549500000000     0.835930000000     0.0141077  
C162     C      0.955180000000     0.546630000000     0.794890000000    -0.10259    
C163     C      0.995270000000     0.560980000000     0.155230000000     0.0147667  
C164     C      0.986490000000     0.467810000000     0.335080000000     0.0167048  
C165     C      0.983680000000     0.561620000000     0.338840000000     0.0573093  
C166     C      0.016830000000     0.472020000000     0.292580000000    -0.105334   
C167     C      0.966320000000     0.561800000000     0.199010000000    -0.103177   
C168     C      0.012350000000     0.562870000000     0.294500000000    -0.11466    
C169     C      0.977410000000     0.516770000000     0.227030000000     0.0205923  
C170     C      0.003160000000     0.517360000000     0.266400000000     0.0259032  
C171     C      0.994250000000     0.467870000000     0.157840000000     0.0145618  
C172     C      0.964970000000     0.470710000000     0.201210000000    -0.103008   
C173     C      0.017270000000     0.652630000000     0.478430000000    -0.00178553 
C174     C      0.950190000000     0.865780000000     0.532190000000     0.0048018  
C175     C      0.002760000000     0.866800000000     0.466520000000     0.0459888  
C176     C      0.961030000000     0.812590000000     0.543980000000    -0.0953125  
C177     C      0.009000000000     0.706280000000     0.466900000000    -0.0889738  
C178     C      0.016840000000     0.813250000000     0.474060000000    -0.105653   
C179     C      0.984260000000     0.734280000000     0.504810000000     0.0116421  
C180     C      0.984510000000     0.784570000000     0.505310000000     0.0209899  
C181     C      0.964430000000     0.651480000000     0.541270000000     0.000271999
C182     C      0.952210000000     0.705670000000     0.536460000000    -0.0903563  
C183     C      0.961880000000     0.150890000000     0.474010000000    -0.0044381  
C184     C      0.015290000000     0.368080000000     0.528560000000     0.00444477 
C185     C      0.943340000000     0.364090000000     0.485000000000     0.0448196  
C186     C      0.027330000000     0.314790000000     0.517920000000    -0.0949809  
C187     C      0.949180000000     0.204400000000     0.480940000000    -0.0886962  
C188     C      0.952090000000     0.311160000000     0.470000000000    -0.105533   
C189     C      0.987680000000     0.234420000000     0.502320000000     0.0111859  
C190     C      0.987150000000     0.284640000000     0.499840000000     0.0207672  
C191     C      0.025880000000     0.153150000000     0.525330000000    -0.00241856 
C192     C      0.021380000000     0.208220000000     0.533960000000    -0.0894342  
C193     C      0.834890000000     0.961280000000     0.457960000000     0.0158984  
C194     C      0.647600000000     0.048080000000     0.508350000000     0.0177872  
C195     C      0.644590000000     0.955500000000     0.514860000000     0.0586642  
C196     C      0.684580000000     0.043700000000     0.471700000000    -0.10563    
C197     C      0.789130000000     0.953050000000     0.482670000000    -0.10158    
C198     C      0.685420000000     0.951750000000     0.481270000000    -0.11463    
C199     C      0.760350000000     0.999470000000     0.484590000000     0.0175592  
C200     C      0.713500000000     0.998610000000     0.480400000000     0.0249616  
C201     C      0.830360000000     0.051280000000     0.472120000000     0.0165501  
C202     C      0.786480000000     0.044830000000     0.499910000000    -0.102442   
C203     C      0.324840000000     0.968280000000     0.513330000000     0.0161319  
C204     C      0.138520000000     0.054930000000     0.560200000000     0.0178859  
C205     C      0.143020000000     0.963920000000     0.544250000000     0.0592699  
C206     C      0.184120000000     0.063410000000     0.535390000000    -0.104999   
C207     C      0.288300000000     0.973010000000     0.550430000000    -0.101955   
C208     C      0.188050000000     0.972100000000     0.518200000000    -0.113971   
C209     C      0.259770000000     0.018350000000     0.541630000000     0.0172208  
C210     C      0.213300000000     0.017460000000     0.534740000000     0.0246889  
C211     C      0.327540000000     0.060060000000     0.505940000000     0.0151188  
C212     C      0.288180000000     0.064930000000     0.540610000000    -0.102426   
C213     C      0.016580000000     0.650080000000     0.031050000000    -0.00345606 
C214     C      0.953160000000     0.865820000000     0.982610000000     0.00256904 
C215     C      0.027990000000     0.863960000000     0.021040000000     0.0448863  
C216     C      0.943300000000     0.812190000000     0.993820000000    -0.094442   
C217     C      0.027330000000     0.703930000000     0.022880000000    -0.0890526  
C218     C      0.021750000000     0.810650000000     0.036220000000    -0.105639   
C219     C      0.986210000000     0.733000000000     0.005540000000     0.0114437  
C220     C      0.985490000000     0.783190000000     0.008620000000     0.0207218  
C221     C      0.947420000000     0.651150000000     0.986870000000    -0.00164737 
C222     C      0.950670000000     0.705920000000     0.976660000000    -0.0900484  
C223     C      0.008480000000     0.364930000000     0.963230000000    -0.000675164
C224     C      0.953490000000     0.154540000000     0.038450000000     0.00703339 
C225     C      0.025830000000     0.154100000000     0.995020000000     0.0485033  
C226     C      0.941630000000     0.206500000000     0.022710000000    -0.0960182  
C227     C      0.019730000000     0.311650000000     0.973710000000    -0.0895608  
C228     C      0.016590000000     0.204460000000     0.974020000000    -0.106486   
C229     C      0.981220000000     0.284490000000     0.998410000000     0.0118365  
C230     C      0.981660000000     0.234320000000     0.001110000000     0.0209443  
C231     C      0.943890000000     0.367990000000     0.013750000000     0.000369313
C232     C      0.947540000000     0.314100000000     0.027330000000    -0.0906332  
C233     C      0.644550000000     0.054270000000     0.004380000000     0.0153425  
C234     C      0.825600000000     0.962870000000     0.021010000000     0.0170036  
C235     C      0.825720000000     0.056290000000     0.013560000000     0.0578471  
C236     C      0.782140000000     0.961230000000     0.991750000000    -0.104821   
C237     C      0.687400000000     0.054480000000     0.034610000000    -0.10339    
C238     C      0.780920000000     0.052160000000     0.985970000000    -0.114192   
C239     C      0.714530000000     0.008360000000     0.025340000000     0.0208566  
C240     C      0.754520000000     0.007080000000     0.000540000000     0.0248399  
C241     C      0.644220000000     0.961250000000     0.008380000000     0.0151257  
C242     C      0.687170000000     0.963520000000     0.038410000000    -0.103233   
C243     C      0.325390000000     0.054770000000     0.017600000000     0.0150518  
C244     C      0.144710000000     0.962680000000     0.011970000000     0.0168117  
C245     C      0.144520000000     0.055950000000     0.003800000000     0.0566203  
C246     C      0.188200000000     0.966610000000     0.040980000000    -0.104806   
C247     C      0.283550000000     0.051390000000     0.986190000000    -0.103149   
C248     C      0.188950000000     0.057210000000     0.032160000000    -0.114032   
C249     C      0.255590000000     0.007340000000     0.000450000000     0.0207092  
C250     C      0.215610000000     0.010320000000     0.025090000000     0.0251009  
C251     C      0.324990000000     0.962070000000     0.024470000000     0.0153369  
C252     C      0.282530000000     0.960590000000     0.993650000000    -0.103104   
C253     C      0.939070000000     0.960540000000     0.662850000000     0.0167995  
C254     C      0.982330000000     0.047960000000     0.850190000000     0.0174471  
C255     C      0.992910000000     0.955740000000     0.853630000000     0.056454   
C256     C      0.946170000000     0.041470000000     0.813050000000    -0.1053     
C257     C      0.964850000000     0.952760000000     0.708130000000    -0.103006   
C258     C      0.960080000000     0.950220000000     0.812330000000    -0.113865   
C259     C      0.964130000000     0.998570000000     0.737740000000     0.018891   
C260     C      0.957600000000     0.997020000000     0.784270000000     0.0243271  
C261     C      0.948650000000     0.051270000000     0.669330000000     0.0168287  
C262     C      0.977640000000     0.045010000000     0.712420000000    -0.103278   
C263     C      0.031650000000     0.973640000000     0.355790000000     0.0170678  
C264     C      0.979880000000     0.061410000000     0.170150000000     0.0163991  
C265     C      0.995500000000     0.969830000000     0.172510000000     0.0586516  
C266     C      0.013000000000     0.069370000000     0.210380000000    -0.104305   
C267     C      0.002160000000     0.976300000000     0.312770000000    -0.101327   
C268     C      0.030130000000     0.978750000000     0.211120000000    -0.113879   
C269     C      0.012560000000     0.022810000000     0.286060000000     0.0166874  
C270     C      0.017320000000     0.023390000000     0.239230000000     0.0244506  
C271     C      0.035280000000     0.064710000000     0.360420000000     0.0154803  
C272     C      0.009860000000     0.069510000000     0.314470000000    -0.101589   
Cu1      Cu     0.984550000000     0.060790000000     0.009520000000     1.20799    
Cu2      Cu     0.985360000000     0.957230000000     0.013710000000     1.20455    
Cu3      Cu     0.985230000000     0.061900000000     0.513540000000     1.19609    
Cu4      Cu     0.986860000000     0.958470000000     0.509410000000     1.20549    
Cu5      Cu     0.990050000000     0.560420000000     0.995440000000     1.1965     
Cu6      Cu     0.988500000000     0.456940000000     0.998670000000     1.20656    
Cu7      Cu     0.979370000000     0.561770000000     0.497940000000     1.20363    
Cu8      Cu     0.982860000000     0.458440000000     0.494390000000     1.20255    
Cu9      Cu     0.484690000000     0.058020000000     0.011610000000     1.20891    
Cu10     Cu     0.484500000000     0.954610000000     0.012140000000     1.20154    
Cu11     Cu     0.487930000000     0.059060000000     0.510730000000     1.19768    
Cu12     Cu     0.484360000000     0.955630000000     0.511260000000     1.20907    
Cu13     Cu     0.488970000000     0.557970000000     0.006160000000     1.2031     
Cu14     Cu     0.490570000000     0.454550000000     0.008420000000     1.20643    
Cu15     Cu     0.482960000000     0.559240000000     0.508600000000     1.20564    
Cu16     Cu     0.478940000000     0.455880000000     0.507390000000     1.20064    
H1       H      0.508970000000     0.421950000000     0.726920000000     0.0448858  
H2       H      0.532020000000     0.556380000000     0.837370000000     0.0299798  
H3       H      0.452140000000     0.560950000000     0.679420000000     0.028882   
H4       H      0.517750000000     0.582050000000     0.730610000000     0.0434963  
H5       H      0.470480000000     0.583380000000     0.783640000000     0.0438252  
H6       H      0.469790000000     0.422610000000     0.785540000000     0.0483528  
H7       H      0.490230000000     0.426790000000     0.644760000000     0.0349125  
H8       H      0.484470000000     0.582900000000     0.866990000000     0.0358993  
H9       H      0.554240000000     0.543820000000     0.699250000000     0.0513435  
H10      H      0.429800000000     0.459830000000     0.812760000000     0.0525307  
H11      H      0.500400000000     0.582950000000     0.647530000000     0.0363313  
H12      H      0.549400000000     0.456990000000     0.697070000000     0.0523389  
H13      H      0.430120000000     0.547390000000     0.812590000000     0.0507365  
H14      H      0.479480000000     0.427150000000     0.869850000000     0.0297411  
H15      H      0.445830000000     0.454540000000     0.678160000000     0.0282443  
H16      H      0.502620000000     0.590820000000     0.288630000000     0.0443093  
H17      H      0.529530000000     0.460290000000     0.179100000000     0.0306066  
H18      H      0.439470000000     0.457130000000     0.335540000000     0.0260284  
H19      H      0.504730000000     0.429950000000     0.286050000000     0.0426272  
H20      H      0.464710000000     0.430650000000     0.228030000000     0.0427565  
H21      H      0.464260000000     0.591580000000     0.229430000000     0.0471018  
H22      H      0.483720000000     0.587180000000     0.370760000000     0.0341696  
H23      H      0.484520000000     0.432590000000     0.146640000000     0.033397   
H24      H      0.542820000000     0.466380000000     0.317390000000     0.0510862  
H25      H      0.425290000000     0.555030000000     0.200150000000     0.0509466  
H26      H      0.484920000000     0.429920000000     0.368010000000     0.0326063  
H27      H      0.541990000000     0.554410000000     0.318490000000     0.0518734  
H28      H      0.426130000000     0.467470000000     0.197690000000     0.0499674  
H29      H      0.476330000000     0.588510000000     0.144750000000     0.0265519  
H30      H      0.438610000000     0.560490000000     0.337540000000     0.0259965  
H31      H      0.546170000000     0.794840000000     0.550970000000     0.039842   
H32      H      0.417510000000     0.651330000000     0.499200000000     0.0290798  
H33      H      0.497590000000     0.869530000000     0.444990000000     0.0276219  
H34      H      0.456440000000     0.796170000000     0.439150000000     0.0391972  
H35      H      0.431300000000     0.722110000000     0.456250000000     0.0408001  
H36      H      0.520200000000     0.722680000000     0.573620000000     0.0458755  
H37      H      0.531560000000     0.884290000000     0.563610000000     0.0305695  
H38      H      0.444420000000     0.631440000000     0.447850000000     0.0265586  
H39      H      0.419920000000     0.809150000000     0.487500000000     0.0469487  
H40      H      0.550780000000     0.701040000000     0.524620000000     0.0501552  
H41      H      0.438620000000     0.885380000000     0.454300000000     0.0278773  
H42      H      0.491300000000     0.809590000000     0.576000000000     0.0478657  
H43      H      0.487690000000     0.703740000000     0.438320000000     0.0468988  
H44      H      0.526280000000     0.631630000000     0.566290000000     0.0200374  
H45      H      0.549770000000     0.867350000000     0.507110000000     0.0286372  
H46      H      0.539820000000     0.297630000000     0.555690000000     0.0400862  
H47      H      0.422340000000     0.149110000000     0.493340000000     0.0298647  
H48      H      0.499190000000     0.370110000000     0.443180000000     0.0268971  
H49      H      0.462790000000     0.294290000000     0.434890000000     0.0391634  
H50      H      0.438590000000     0.219350000000     0.450270000000     0.0404639  
H51      H      0.513300000000     0.225010000000     0.576920000000     0.0461277  
H52      H      0.523100000000     0.386560000000     0.564030000000     0.0311051  
H53      H      0.454690000000     0.129400000000     0.445210000000     0.0278868  
H54      H      0.420670000000     0.306010000000     0.478710000000     0.0464079  
H55      H      0.550190000000     0.204320000000     0.532100000000     0.050179   
H56      H      0.439060000000     0.382930000000     0.447650000000     0.0277876  
H57      H      0.482230000000     0.311500000000     0.574240000000     0.0480112  
H58      H      0.497200000000     0.202720000000     0.439290000000     0.0469087  
H59      H      0.524300000000     0.134030000000     0.571220000000     0.0197481  
H60      H      0.545960000000     0.368640000000     0.509610000000     0.0304136  
H61      H      0.535100000000     0.718270000000     0.064710000000     0.0399176  
H62      H      0.467710000000     0.863930000000     0.945850000000     0.0294593  
H63      H      0.423430000000     0.642550000000     0.028420000000     0.0258229  
H64      H      0.412560000000     0.717600000000     0.990780000000     0.0394417  
H65      H      0.426940000000     0.792350000000     0.963320000000     0.0410936  
H66      H      0.554580000000     0.790670000000     0.035940000000     0.045759   
H67      H      0.545270000000     0.629080000000     0.048570000000     0.0305042  
H68      H      0.419900000000     0.882810000000     0.979150000000     0.0268355  
H69      H      0.455280000000     0.705720000000     0.947610000000     0.0468961  
H70      H      0.510260000000     0.810830000000     0.073690000000     0.0499858  
H71      H      0.426280000000     0.628640000000     0.968390000000     0.0275346  
H72      H      0.552790000000     0.703870000000     0.006950000000     0.0477274  
H73      H      0.416000000000     0.809480000000     0.021820000000     0.0469796  
H74      H      0.547130000000     0.881580000000     0.046320000000     0.0198322  
H75      H      0.491280000000     0.646070000000     0.073110000000     0.030567   
H76      H      0.544340000000     0.217030000000     0.962320000000     0.0399018  
H77      H      0.425820000000     0.363670000000     0.029290000000     0.0287802  
H78      H      0.509270000000     0.143430000000     0.075130000000     0.0284861  
H79      H      0.472310000000     0.218790000000     0.085770000000     0.0396587  
H80      H      0.444890000000     0.293240000000     0.071030000000     0.0408808  
H81      H      0.515730000000     0.289220000000     0.942060000000     0.0464702  
H82      H      0.526830000000     0.127710000000     0.953090000000     0.0283958  
H83      H      0.460140000000     0.383870000000     0.075850000000     0.0263841  
H84      H      0.428280000000     0.206630000000     0.043960000000     0.0469297  
H85      H      0.553410000000     0.311160000000     0.985700000000     0.0512022  
H86      H      0.449130000000     0.129940000000     0.073670000000     0.0285493  
H87      H      0.486320000000     0.203040000000     0.945300000000     0.0487612  
H88      H      0.503450000000     0.311100000000     0.080260000000     0.0478273  
H89      H      0.524130000000     0.380150000000     0.946890000000     0.0222263  
H90      H      0.552630000000     0.145040000000     0.006430000000     0.0290406  
H91      H      0.468410000000     0.085940000000     0.732780000000     0.0453188  
H92      H      0.440560000000     0.953850000000     0.841510000000     0.0292148  
H93      H      0.529030000000     0.952750000000     0.681320000000     0.0279072  
H94      H      0.464490000000     0.925010000000     0.730950000000     0.0432549  
H95      H      0.502280000000     0.923260000000     0.790370000000     0.0436889  
H96      H      0.509590000000     0.084040000000     0.790000000000     0.0477553  
H97      H      0.487990000000     0.084670000000     0.650840000000     0.0364143  
H98      H      0.486080000000     0.925780000000     0.872960000000     0.0347488  
H99      H      0.426110000000     0.962900000000     0.701370000000     0.0519024  
H100     H      0.546840000000     0.045490000000     0.819190000000     0.0517191  
H101     H      0.482750000000     0.927430000000     0.648770000000     0.0361362  
H102     H      0.428670000000     0.051060000000     0.701940000000     0.0527563  
H103     H      0.543430000000     0.957900000000     0.819680000000     0.0512674  
H104     H      0.496350000000     0.081580000000     0.873970000000     0.027857   
H105     H      0.532180000000     0.055080000000     0.682990000000     0.0277191  
H106     H      0.517300000000     0.084250000000     0.290040000000     0.0444326  
H107     H      0.532240000000     0.953200000000     0.180470000000     0.0294224  
H108     H      0.448010000000     0.954120000000     0.340000000000     0.0261933  
H109     H      0.511870000000     0.923790000000     0.290570000000     0.0424653  
H110     H      0.470540000000     0.925170000000     0.233390000000     0.0430344  
H111     H      0.472280000000     0.086030000000     0.235400000000     0.0470153  
H112     H      0.497890000000     0.083540000000     0.372450000000     0.0340373  
H113     H      0.484550000000     0.927320000000     0.150610000000     0.0355588  
H114     H      0.551490000000     0.959130000000     0.321150000000     0.0506565  
H115     H      0.431470000000     0.050300000000     0.207790000000     0.0510148  
H116     H      0.492880000000     0.926550000000     0.372910000000     0.0325215  
H117     H      0.554290000000     0.046230000000     0.321020000000     0.051335   
H118     H      0.430430000000     0.962660000000     0.205710000000     0.0505846  
H119     H      0.480480000000     0.083450000000     0.150360000000     0.0257047  
H120     H      0.451380000000     0.059040000000     0.339650000000     0.0260286  
H121     H      0.765720000000     0.418440000000     0.496310000000     0.044593   
H122     H      0.655360000000     0.550750000000     0.544040000000     0.0292175  
H123     H      0.807230000000     0.561980000000     0.454940000000     0.0283978  
H124     H      0.757380000000     0.576760000000     0.523830000000     0.0433781  
H125     H      0.703120000000     0.580460000000     0.478010000000     0.043753   
H126     H      0.699070000000     0.419500000000     0.474760000000     0.047839   
H127     H      0.846370000000     0.428500000000     0.477070000000     0.0361637  
H128     H      0.622040000000     0.580750000000     0.500950000000     0.0354579  
H129     H      0.790660000000     0.536030000000     0.556020000000     0.0525534  
H130     H      0.669820000000     0.457710000000     0.436770000000     0.0516352  
H131     H      0.839280000000     0.583370000000     0.503450000000     0.0362794  
H132     H      0.794580000000     0.447710000000     0.541750000000     0.0543948  
H133     H      0.669880000000     0.546020000000     0.439910000000     0.0513328  
H134     H      0.615680000000     0.425060000000     0.489740000000     0.0265399  
H135     H      0.811510000000     0.463140000000     0.438710000000     0.0273497  
H136     H      0.262950000000     0.599970000000     0.497800000000     0.0440997  
H137     H      0.153910000000     0.466760000000     0.462990000000     0.0293402  
H138     H      0.308580000000     0.460450000000     0.548220000000     0.0278823  
H139     H      0.257150000000     0.440070000000     0.481920000000     0.0427919  
H140     H      0.203330000000     0.437970000000     0.528050000000     0.0430743  
H141     H      0.200770000000     0.598680000000     0.530770000000     0.0478537  
H142     H      0.345560000000     0.593010000000     0.512800000000     0.0345946  
H143     H      0.121580000000     0.438150000000     0.507640000000     0.0327913  
H144     H      0.288590000000     0.479210000000     0.446340000000     0.0508695  
H145     H      0.172090000000     0.560620000000     0.569040000000     0.0514084  
H146     H      0.339480000000     0.436500000000     0.500110000000     0.0356894  
H147     H      0.290670000000     0.567240000000     0.454030000000     0.0508401  
H148     H      0.171510000000     0.473280000000     0.566610000000     0.0500346  
H149     H      0.116420000000     0.593530000000     0.518080000000     0.0264368  
H150     H      0.313160000000     0.563420000000     0.556890000000     0.0282537  
H151     H      0.768270000000     0.431930000000     0.027180000000     0.0449881  
H152     H      0.658770000000     0.559730000000     0.048080000000     0.0299338  
H153     H      0.818620000000     0.561960000000     0.957770000000     0.0263509  
H154     H      0.769260000000     0.592550000000     0.020880000000     0.0426868  
H155     H      0.708400000000     0.591090000000     0.985510000000     0.0434022  
H156     H      0.714130000000     0.430410000000     0.981390000000     0.0478245  
H157     H      0.850050000000     0.432170000000     0.006410000000     0.0323566  
H158     H      0.626370000000     0.586100000000     0.002350000000     0.0350645  
H159     H      0.799390000000     0.557550000000     0.061250000000     0.0509106  
H160     H      0.683690000000     0.466910000000     0.943330000000     0.0528801  
H161     H      0.851620000000     0.589300000000     0.002690000000     0.0323543  
H162     H      0.799760000000     0.469830000000     0.063850000000     0.0516734  
H163     H      0.680110000000     0.554430000000     0.945060000000     0.0514611  
H164     H      0.629520000000     0.430260000000     0.993960000000     0.0299849  
H165     H      0.817060000000     0.457870000000     0.960570000000     0.026789   
H166     H      0.269250000000     0.580190000000     0.975580000000     0.0446953  
H167     H      0.158470000000     0.452810000000     0.954180000000     0.0292132  
H168     H      0.318660000000     0.451850000000     0.048080000000     0.0262681  
H169     H      0.270140000000     0.419600000000     0.985270000000     0.0431397  
H170     H      0.207530000000     0.421770000000     0.017070000000     0.04337    
H171     H      0.213690000000     0.582670000000     0.019370000000     0.0471471  
H172     H      0.350520000000     0.580450000000     0.997800000000     0.0324577  
H173     H      0.125780000000     0.426790000000     0.999860000000     0.0351818  
H174     H      0.300600000000     0.453530000000     0.944320000000     0.0515191  
H175     H      0.183010000000     0.546910000000     0.057840000000     0.0512127  
H176     H      0.352200000000     0.423330000000     0.004190000000     0.0352778  
H177     H      0.301210000000     0.541530000000     0.940060000000     0.0517748  
H178     H      0.179310000000     0.458890000000     0.057270000000     0.0507073  
H179     H      0.129340000000     0.582910000000     0.006150000000     0.0274325  
H180     H      0.316920000000     0.555190000000     0.043410000000     0.026185   
H181     H      0.960820000000     0.420280000000     0.778950000000     0.0440678  
H182     H      0.934580000000     0.555500000000     0.668280000000     0.0288024  
H183     H      0.023180000000     0.555110000000     0.823120000000     0.0291341  
H184     H      0.955880000000     0.580990000000     0.775190000000     0.042922   
H185     H      0.999490000000     0.580550000000     0.719490000000     0.0432427  
H186     H      0.992150000000     0.419630000000     0.716030000000     0.0476139  
H187     H      0.980590000000     0.425000000000     0.860750000000     0.0334769  
H188     H      0.981340000000     0.582190000000     0.637540000000     0.0327273  
H189     H      0.919500000000     0.544180000000     0.808050000000     0.0510102  
H190     H      0.034000000000     0.454650000000     0.688840000000     0.0512583  
H191     H      0.978330000000     0.582090000000     0.856590000000     0.0363546  
H192     H      0.921220000000     0.456220000000     0.809130000000     0.0515066  
H193     H      0.037130000000     0.542980000000     0.688800000000     0.0507729  
H194     H      0.982130000000     0.425900000000     0.631750000000     0.0275499  
H195     H      0.024990000000     0.451340000000     0.826370000000     0.0274989  
H196     H      0.970880000000     0.597070000000     0.216590000000     0.0443925  
H197     H      0.950760000000     0.460120000000     0.324050000000     0.0295549  
H198     H      0.030570000000     0.461970000000     0.167910000000     0.0276002  
H199     H      0.967490000000     0.436490000000     0.221030000000     0.042977   
H200     H      0.016340000000     0.437740000000     0.272680000000     0.043464   
H201     H      0.008150000000     0.598020000000     0.276480000000     0.0476969  
H202     H      0.984670000000     0.592310000000     0.133500000000     0.032993   
H203     H      0.998310000000     0.435790000000     0.355280000000     0.0359283  
H204     H      0.928360000000     0.472840000000     0.190850000000     0.0509819  
H205     H      0.049130000000     0.562720000000     0.304440000000     0.051841   
H206     H      0.983190000000     0.435390000000     0.137850000000     0.0355682  
H207     H      0.929520000000     0.560730000000     0.189220000000     0.0515851  
H208     H      0.053000000000     0.475830000000     0.303990000000     0.0510386  
H209     H      0.996900000000     0.591430000000     0.361080000000     0.0283245  
H210     H      0.031770000000     0.566720000000     0.164650000000     0.0265908  
H211     H      0.043360000000     0.722090000000     0.460130000000     0.0401028  
H212     H      0.919050000000     0.867950000000     0.510410000000     0.0301482  
H213     H      0.993560000000     0.646810000000     0.565510000000     0.0263563  
H214     H      0.952760000000     0.720930000000     0.571700000000     0.0395704  
H215     H      0.927790000000     0.795670000000     0.553360000000     0.0408996  
H216     H      0.020580000000     0.795870000000     0.439850000000     0.0460382  
H217     H      0.027620000000     0.633170000000     0.446720000000     0.0305333  
H218     H      0.941920000000     0.885060000000     0.564480000000     0.0271822  
H219     H      0.916790000000     0.708710000000     0.522800000000     0.0473955  
H220     H      0.051260000000     0.812840000000     0.490340000000     0.0503468  
H221     H      0.934490000000     0.631900000000     0.555850000000     0.0281076  
H222     H      0.988260000000     0.708630000000     0.435030000000     0.0484051  
H223     H      0.983740000000     0.811700000000     0.574530000000     0.0478079  
H224     H      0.033380000000     0.886280000000     0.453330000000     0.0200897  
H225     H      0.045930000000     0.649400000000     0.503390000000     0.0306605  
H226     H      0.940090000000     0.218540000000     0.446460000000     0.0390353  
H227     H      0.998060000000     0.370640000000     0.562390000000     0.0303575  
H228     H      0.049890000000     0.146110000000     0.496430000000     0.0268569  
H229     H      0.056400000000     0.223470000000     0.530090000000     0.0390773  
H230     H      0.041100000000     0.299530000000     0.550320000000     0.0407224  
H231     H      0.918490000000     0.292140000000     0.469120000000     0.045575   
H232     H      0.930470000000     0.130450000000     0.464730000000     0.0283468  
H233     H      0.047640000000     0.389010000000     0.531550000000     0.0264412  
H234     H      0.010040000000     0.214040000000     0.569910000000     0.0467871  
H235     H      0.965470000000     0.311530000000     0.434330000000     0.0496995  
H236     H      0.040760000000     0.136340000000     0.556560000000     0.0297494  
H237     H      0.918520000000     0.206680000000     0.503420000000     0.0478565  
H238     H      0.055050000000     0.313990000000     0.491840000000     0.0468377  
H239     H      0.925010000000     0.382420000000     0.456460000000     0.0206811  
H240     H      0.986330000000     0.147410000000     0.444940000000     0.0300425  
H241     H      0.772030000000     0.923480000000     0.463220000000     0.0428829  
H242     H      0.664310000000     0.054290000000     0.542080000000     0.0292837  
H243     H      0.820930000000     0.058920000000     0.435900000000     0.0252773  
H244     H      0.767230000000     0.079400000000     0.498490000000     0.0432628  
H245     H      0.703420000000     0.078460000000     0.468920000000     0.0435398  
H246     H      0.705260000000     0.918640000000     0.490320000000     0.0480042  
H247     H      0.856500000000     0.928200000000     0.462300000000     0.0360181  
H248     H      0.626520000000     0.080860000000     0.500660000000     0.0356701  
H249     H      0.795910000000     0.039830000000     0.536510000000     0.0534593  
H250     H      0.671830000000     0.945470000000     0.446170000000     0.051467   
H251     H      0.849200000000     0.083560000000     0.485420000000     0.0334436  
H252     H      0.795620000000     0.940070000000     0.518160000000     0.0511459  
H253     H      0.667500000000     0.039240000000     0.437910000000     0.0519987  
H254     H      0.621690000000     0.924160000000     0.507140000000     0.0267841  
H255     H      0.827820000000     0.965190000000     0.420680000000     0.026716   
H256     H      0.268970000000     0.938570000000     0.553860000000     0.0449405  
H257     H      0.145520000000     0.052160000000     0.597570000000     0.0287199  
H258     H      0.312720000000     0.061130000000     0.470860000000     0.0253106  
H259     H      0.268750000000     0.097820000000     0.530320000000     0.0424017  
H260     H      0.200710000000     0.093860000000     0.554060000000     0.043208   
H261     H      0.208180000000     0.937960000000     0.517660000000     0.048018   
H262     H      0.345790000000     0.935310000000     0.520620000000     0.0357014  
H263     H      0.116770000000     0.087790000000     0.555340000000     0.0324619  
H264     H      0.302520000000     0.071650000000     0.575310000000     0.0512531  
H265     H      0.179280000000     0.978470000000     0.481610000000     0.0532627  
H266     H      0.350280000000     0.092390000000     0.509410000000     0.0345005  
H267     H      0.305820000000     0.977590000000     0.583990000000     0.0535152  
H268     H      0.177490000000     0.075270000000     0.499590000000     0.0498303  
H269     H      0.124620000000     0.933980000000     0.526280000000     0.0293424  
H270     H      0.307680000000     0.962690000000     0.479710000000     0.0260703  
H271     H      0.039570000000     0.718200000000     0.056310000000     0.039359   
H272     H      0.967970000000     0.869010000000     0.947690000000     0.0305793  
H273     H      0.926940000000     0.645000000000     0.018540000000     0.0275575  
H274     H      0.915790000000     0.720700000000     0.982630000000     0.0392861  
H275     H      0.927590000000     0.796780000000     0.962390000000     0.0405762  
H276     H      0.055860000000     0.792770000000     0.034650000000     0.0455648  
H277     H      0.049200000000     0.630190000000     0.036680000000     0.0294431  
H278     H      0.920090000000     0.885610000000     0.981830000000     0.0275829  
H279     H      0.959480000000     0.711000000000     0.939910000000     0.0470341  
H280     H      0.010840000000     0.810340000000     0.072710000000     0.0504026  
H281     H      0.929140000000     0.633290000000     0.958020000000     0.0285306  
H282     H      0.055510000000     0.706980000000     0.997430000000     0.0487974  
H283     H      0.917630000000     0.810440000000     0.021890000000     0.0473567  
H284     H      0.047770000000     0.882710000000     0.048350000000     0.0203145  
H285     H      0.995580000000     0.646100000000     0.062650000000     0.0293846  
H286     H      0.027400000000     0.294220000000     0.940210000000     0.0398058  
H287     H      0.970300000000     0.155360000000     0.072590000000     0.0284692  
H288     H      0.920740000000     0.372140000000     0.983690000000     0.0272525  
H289     H      0.912400000000     0.298860000000     0.024510000000     0.0396296  
H290     H      0.928310000000     0.225480000000     0.053530000000     0.0415901  
H291     H      0.050060000000     0.223380000000     0.970480000000     0.0464137  
H292     H      0.040490000000     0.384040000000     0.953300000000     0.0288029  
H293     H      0.921090000000     0.134000000000     0.042940000000     0.0297396  
H294     H      0.958540000000     0.311880000000     0.063740000000     0.0467878  
H295     H      0.002790000000     0.199280000000     0.938850000000     0.0507573  
H296     H      0.928470000000     0.388380000000     0.042790000000     0.0279728  
H297     H      0.050980000000     0.310290000000     0.995430000000     0.0478913  
H298     H      0.913570000000     0.204500000000     0.997040000000     0.0476565  
H299     H      0.044740000000     0.132370000000     0.969070000000     0.0215109  
H300     H      0.984450000000     0.367270000000     0.933700000000     0.0276357  
H301     H      0.706280000000     0.089060000000     0.030380000000     0.0450639  
H302     H      0.815780000000     0.959690000000     0.057700000000     0.0308874  
H303     H      0.654630000000     0.953450000000     0.972460000000     0.0283704  
H304     H      0.705640000000     0.928470000000     0.036770000000     0.0432464  
H305     H      0.764060000000     0.926430000000     0.997450000000     0.0430655  
H306     H      0.761630000000     0.086850000000     0.986380000000     0.0473488  
H307     H      0.623590000000     0.086790000000     0.013230000000     0.033928   
H308     H      0.846660000000     0.930320000000     0.012510000000     0.0333423  
H309     H      0.676310000000     0.966930000000     0.074800000000     0.0519015  
H310     H      0.790290000000     0.047680000000     0.949270000000     0.0511562  
H311     H      0.623100000000     0.930090000000     0.020430000000     0.0356398  
H312     H      0.676380000000     0.054490000000     0.071090000000     0.0530784  
H313     H      0.792320000000     0.960360000000     0.955040000000     0.0496596  
H314     H      0.846330000000     0.085500000000     0.996970000000     0.0281375  
H315     H      0.655230000000     0.058230000000     0.968000000000     0.0262928  
H316     H      0.265170000000     0.086530000000     0.985470000000     0.0455682  
H317     H      0.154370000000     0.952320000000     0.976420000000     0.0322408  
H318     H      0.313700000000     0.959910000000     0.060810000000     0.0266001  
H319     H      0.263360000000     0.926410000000     0.999180000000     0.0432041  
H320     H      0.206560000000     0.931440000000     0.040980000000     0.0431421  
H321     H      0.207960000000     0.091510000000     0.026400000000     0.0478235  
H322     H      0.346760000000     0.086020000000     0.006060000000     0.0371621  
H323     H      0.123750000000     0.932440000000     0.026210000000     0.03533    
H324     H      0.294070000000     0.958670000000     0.957380000000     0.0519961  
H325     H      0.179170000000     0.059320000000     0.068950000000     0.051738   
H326     H      0.346000000000     0.929090000000     0.017380000000     0.0340625  
H327     H      0.295650000000     0.046040000000     0.950400000000     0.0537122  
H328     H      0.178010000000     0.972340000000     0.077310000000     0.0497337  
H329     H      0.123890000000     0.087670000000     0.014960000000     0.0301176  
H330     H      0.313630000000     0.062910000000     0.053030000000     0.0268449  
H331     H      0.947660000000     0.921320000000     0.724650000000     0.0428633  
H332     H      0.015850000000     0.055810000000     0.833670000000     0.0303832  
H333     H      0.912350000000     0.056760000000     0.679670000000     0.0263388  
H334     H      0.976000000000     0.079010000000     0.732570000000     0.0437522  
H335     H      0.941430000000     0.075920000000     0.794040000000     0.0435416  
H336     H      0.970740000000     0.917560000000     0.792660000000     0.0480425  
H337     H      0.945090000000     0.928400000000     0.640430000000     0.0330213  
H338     H      0.973010000000     0.080390000000     0.871080000000     0.0357333  
H339     H      0.014110000000     0.041380000000     0.702020000000     0.0546468  
H340     H      0.925140000000     0.942260000000     0.825490000000     0.0505046  
H341     H      0.960110000000     0.084710000000     0.651050000000     0.0364818  
H342     H      0.000980000000     0.942610000000     0.700910000000     0.0535373  
H343     H      0.912620000000     0.034880000000     0.829980000000     0.0515068  
H344     H      0.986230000000     0.924170000000     0.876590000000     0.0288088  
H345     H      0.901760000000     0.961690000000     0.670460000000     0.0251409  
H346     H      0.006160000000     0.941800000000     0.293790000000     0.0454322  
H347     H      0.944400000000     0.060430000000     0.183950000000     0.0296879  
H348     H      0.072710000000     0.065850000000     0.353410000000     0.0249682  
H349     H      0.026010000000     0.101020000000     0.296980000000     0.041997   
H350     H      0.999440000000     0.101110000000     0.229520000000     0.0429951  
H351     H      0.036570000000     0.944800000000     0.230490000000     0.0472874  
H352     H      0.023250000000     0.939700000000     0.374750000000     0.0354263  
H353     H      0.981920000000     0.093760000000     0.147250000000     0.0348583  
H354     H      0.973280000000     0.078320000000     0.320930000000     0.049686   
H355     H      0.063780000000     0.986630000000     0.194860000000     0.052576   
H356     H      0.027010000000     0.096920000000     0.382030000000     0.0326454  
H357     H      0.965560000000     0.977470000000     0.323230000000     0.0553035  
H358     H      0.047340000000     0.079410000000     0.196930000000     0.0499749  
H359     H      0.009710000000     0.939920000000     0.151020000000     0.0291396  
H360     H      0.068230000000     0.971330000000     0.345350000000     0.025232   
N1       N      0.491590000000     0.504460000000     0.873220000000    -0.191196   
N2       N      0.486590000000     0.505680000000     0.641870000000    -0.188327   
N3       N      0.489820000000     0.511320000000     0.141290000000    -0.191814   
N4       N      0.478080000000     0.508370000000     0.373980000000    -0.189066   
N5       N      0.486880000000     0.627850000000     0.506240000000    -0.241535   
N6       N      0.479590000000     0.887070000000     0.513610000000    -0.235325   
N7       N      0.491300000000     0.127820000000     0.507630000000    -0.239692   
N8       N      0.475080000000     0.387140000000     0.509970000000    -0.233965   
N9       N      0.482890000000     0.885840000000     0.014420000000    -0.240745   
N10      N      0.489740000000     0.626680000000     0.002460000000    -0.234594   
N11      N      0.493760000000     0.385860000000     0.011880000000    -0.240505   
N12      N      0.481860000000     0.126710000000     0.009530000000    -0.234906   
N13      N      0.481800000000     0.004550000000     0.877910000000    -0.191642   
N14      N      0.490800000000     0.006020000000     0.644990000000    -0.187924   
N15      N      0.491780000000     0.005890000000     0.145660000000    -0.191998   
N16      N      0.488000000000     0.005320000000     0.377090000000    -0.189735   
N17      N      0.614780000000     0.502090000000     0.504460000000    -0.191529   
N18      N      0.847590000000     0.506980000000     0.486350000000    -0.187645   
N19      N      0.114850000000     0.516700000000     0.502670000000    -0.192221   
N20      N      0.347250000000     0.513970000000     0.512670000000    -0.187654   
N21      N      0.623590000000     0.507220000000     0.007740000000    -0.191269   
N22      N      0.855310000000     0.510510000000     0.997740000000    -0.189404   
N23      N      0.123150000000     0.505660000000     0.993990000000    -0.191763   
N24      N      0.355840000000     0.502220000000     0.007390000000    -0.188329   
N25      N      0.973180000000     0.503960000000     0.629950000000    -0.191478   
N26      N      0.986200000000     0.503780000000     0.863070000000    -0.18738    
N27      N      0.986990000000     0.513560000000     0.362400000000    -0.19106    
N28      N      0.991050000000     0.513650000000     0.130920000000    -0.188651   
N29      N      0.989430000000     0.889570000000     0.510090000000    -0.239731   
N30      N      0.975560000000     0.630440000000     0.496660000000    -0.234446   
N31      N      0.986960000000     0.389660000000     0.492270000000    -0.239778   
N32      N      0.981370000000     0.130720000000     0.516100000000    -0.232442   
N33      N      0.620140000000     0.002720000000     0.510260000000    -0.191325   
N34      N      0.857580000000     0.006120000000     0.474110000000    -0.189006   
N35      N      0.115800000000     0.009470000000     0.544950000000    -0.191707   
N36      N      0.352420000000     0.013430000000     0.511510000000    -0.188785   
N37      N      0.983280000000     0.888270000000     0.016980000000    -0.239016   
N38      N      0.992850000000     0.629240000000     0.991500000000    -0.232707   
N39      N      0.982300000000     0.129390000000     0.004690000000    -0.24178    
N40      N      0.989040000000     0.388370000000     0.003720000000    -0.235613   
N41      N      0.851090000000     0.009210000000     0.014290000000    -0.192522   
N42      N      0.618660000000     0.008010000000     0.009470000000    -0.188057   
N43      N      0.119120000000     0.009530000000     0.010710000000    -0.191032   
N44      N      0.350980000000     0.008040000000     0.017830000000    -0.18894    
N45      N      0.986040000000     0.002830000000     0.877820000000    -0.191484   
N46      N      0.952140000000     0.006990000000     0.640920000000    -0.189058   
N47      N      0.988660000000     0.015040000000     0.145510000000    -0.190604   
N48      N      0.024570000000     0.018070000000     0.383210000000    -0.188884   
O1       O      0.984680000000     0.052570000000     0.075450000000    -0.48342    
O2       O      0.984160000000     0.046020000000     0.944850000000    -0.484548   
O3       O      0.919590000000     0.049120000000     0.009790000000    -0.489261   
O4       O      0.050180000000     0.049450000000     0.009410000000    -0.482785   
O5       O      0.050600000000     0.969230000000     0.013610000000    -0.482167   
O6       O      0.919940000000     0.969150000000     0.015620000000    -0.48807    
O7       O      0.986660000000     0.965670000000     0.948000000000    -0.486973   
O8       O      0.988440000000     0.972070000000     0.078320000000    -0.480236   
O9       O      0.970710000000     0.050350000000     0.576720000000    -0.483374   
O10      O      0.004850000000     0.055090000000     0.450600000000    -0.487119   
O11      O      0.922220000000     0.046460000000     0.497050000000    -0.485862   
O12      O      0.048360000000     0.049230000000     0.530770000000    -0.482099   
O13      O      0.050170000000     0.969020000000     0.525180000000    -0.482744   
O14      O      0.924520000000     0.966430000000     0.489900000000    -0.486952   
O15      O      0.004210000000     0.974730000000     0.446980000000    -0.48006    
O16      O      0.968890000000     0.970120000000     0.572670000000    -0.486728   
O17      O      0.990310000000     0.551640000000     0.061170000000    -0.487622   
O18      O      0.987830000000     0.546220000000     0.930550000000    -0.481361   
O19      O      0.924430000000     0.549770000000     0.997400000000    -0.486024   
O20      O      0.055180000000     0.547260000000     0.994680000000    -0.483908   
O21      O      0.053820000000     0.466950000000     0.996570000000    -0.487521   
O22      O      0.923360000000     0.469420000000     0.997770000000    -0.489362   
O23      O      0.987410000000     0.465700000000     0.932840000000    -0.484533   
O24      O      0.989200000000     0.471270000000     0.063480000000    -0.486405   
O25      O      0.977210000000     0.547300000000     0.562960000000    -0.484741   
O26      O      0.982870000000     0.550600000000     0.432480000000    -0.484536   
O27      O      0.914420000000     0.549300000000     0.495690000000    -0.483274   
O28      O      0.044860000000     0.554090000000     0.502040000000    -0.488903   
O29      O      0.047650000000     0.473950000000     0.497470000000    -0.486247   
O30      O      0.917450000000     0.469360000000     0.488330000000    -0.481986   
O31      O      0.986020000000     0.470290000000     0.429490000000    -0.481998   
O32      O      0.977160000000     0.466840000000     0.559860000000    -0.487143   
O33      O      0.487980000000     0.045660000000     0.076890000000    -0.487063   
O34      O      0.483650000000     0.044340000000     0.946660000000    -0.487132   
O35      O      0.419610000000     0.047790000000     0.014060000000    -0.48815    
O36      O      0.550160000000     0.048460000000     0.010430000000    -0.486357   
O37      O      0.549900000000     0.967990000000     0.010540000000    -0.481114   
O38      O      0.419380000000     0.967480000000     0.015660000000    -0.486334   
O39      O      0.482680000000     0.963880000000     0.946530000000    -0.48534    
O40      O      0.487790000000     0.965220000000     0.077300000000    -0.483178   
O41      O      0.489270000000     0.047010000000     0.576520000000    -0.479945   
O42      O      0.488360000000     0.045730000000     0.445590000000    -0.486671   
O43      O      0.422230000000     0.051210000000     0.511220000000    -0.486983   
O44      O      0.552860000000     0.045620000000     0.510320000000    -0.480454   
O45      O      0.550150000000     0.965120000000     0.510900000000    -0.483934   
O46      O      0.419690000000     0.970800000000     0.511620000000    -0.486525   
O47      O      0.485920000000     0.965510000000     0.445820000000    -0.491115   
O48      O      0.486330000000     0.966680000000     0.576260000000    -0.487574   
O49      O      0.487990000000     0.550050000000     0.071850000000    -0.487005   
O50      O      0.489760000000     0.546290000000     0.941070000000    -0.48489    
O51      O      0.423890000000     0.543490000000     0.006380000000    -0.486821   
O52      O      0.554290000000     0.546130000000     0.007460000000    -0.48582    
O53      O      0.555620000000     0.465760000000     0.007150000000    -0.483442   
O54      O      0.424980000000     0.462960000000     0.008110000000    -0.48618    
O55      O      0.490280000000     0.465930000000     0.942780000000    -0.483003   
O56      O      0.491190000000     0.469750000000     0.073310000000    -0.48636    
O57      O      0.485800000000     0.547140000000     0.573850000000    -0.483373   
O58      O      0.480570000000     0.547220000000     0.443240000000    -0.487976   
O59      O      0.417330000000     0.551260000000     0.512460000000    -0.485895   
O60      O      0.547800000000     0.545410000000     0.507250000000    -0.483205   
O61      O      0.544600000000     0.465040000000     0.504910000000    -0.4862     
O62      O      0.414200000000     0.470940000000     0.507740000000    -0.483176   
O63      O      0.478780000000     0.466910000000     0.441980000000    -0.486753   
O64      O      0.481020000000     0.467020000000     0.572730000000    -0.48709    
S1       S      0.547210000000     0.442890000000     0.839480000000    -0.0331354  
S2       S      0.543210000000     0.573470000000     0.177480000000    -0.0340898  
S3       S      0.455110000000     0.653060000000     0.584740000000    -0.0322698  
S4       S      0.450850000000     0.152020000000     0.582240000000    -0.0335649  
S5       S      0.557220000000     0.863090000000     0.972800000000    -0.0337792  
S6       S      0.450710000000     0.359920000000     0.939290000000    -0.0321509  
S7       S      0.429230000000     0.067370000000     0.841360000000    -0.0313211  
S8       S      0.548540000000     0.066180000000     0.179500000000    -0.034833   
S9       S      0.651450000000     0.438020000000     0.555460000000    -0.0348357  
S10      S      0.150210000000     0.581220000000     0.451210000000    -0.0363158  
S11      S      0.661490000000     0.446150000000     0.061100000000    -0.0304086  
S12      S      0.161640000000     0.565230000000     0.939560000000    -0.031825   
S13      S      0.915640000000     0.444460000000     0.663580000000    -0.0313075  
S14      S      0.930590000000     0.573970000000     0.328170000000    -0.0299073  
S15      S      0.962940000000     0.871730000000     0.428010000000    -0.0319891  
S16      S      0.910500000000     0.366590000000     0.529830000000    -0.0295784  
S17      S      0.661530000000     0.948680000000     0.567240000000    -0.0363998  
S18      S      0.152680000000     0.945280000000     0.595930000000    -0.0328368  
S19      S      0.057590000000     0.867590000000     0.974050000000    -0.0274669  
S20      S      0.057930000000     0.158100000000     0.040260000000    -0.033428   
S21      S      0.815590000000     0.073990000000     0.065420000000    -0.0337085  
S22      S      0.155170000000     0.063560000000     0.949910000000    -0.0297904  
S23      S      0.045710000000     0.951370000000     0.837400000000    -0.028202   
S24      S      0.947120000000     0.950770000000     0.192660000000    -0.0310877  


