data_structure

_audit_creation_method RASPA-1.0
_audit_creation_date 2023-5-25
_audit_author_name 'Poobodin Mano'

_cell_length_a    29.2396
_cell_length_b    27.3535
_cell_length_c    29.0544
_cell_angle_alpha 90
_cell_angle_beta  90.0005
_cell_angle_gamma 90.002
_cell_volume      23237.9

_symmetry_cell_setting          triclinic
_symmetry_space_group_name_Hall 'P 1'
_symmetry_space_group_name_H-M  'P 1'
_symmetry_Int_Tables_number     1

_symmetry_equiv_pos_as_xyz 'x,y,z'

loop_
_atom_site_label
_atom_site_type_symbol
_atom_site_fract_x
_atom_site_fract_y
_atom_site_fract_z
_atom_site_charge
C1       C      0.998300000000     0.010970000000     0.103570000000     0.476807   
C2       C      0.987610000000     0.009530000000     0.929010000000     0.477306   
C3       C      0.907130000000     0.003820000000     0.022540000000     0.477947   
C4       C      0.080370000000     0.008760000000     0.011650000000     0.48109    
C5       C      0.977780000000     0.008110000000     0.603710000000     0.475923   
C6       C      0.993910000000     0.011840000000     0.429580000000     0.476832   
C7       C      0.898760000000     0.001630000000     0.506870000000     0.478441   
C8       C      0.071260000000     0.011290000000     0.523730000000     0.4772     
C9       C      0.979680000000     0.505980000000     0.086240000000     0.477391   
C10      C      0.999580000000     0.507790000000     0.912530000000     0.478069   
C11      C      0.902130000000     0.508920000000     0.988920000000     0.477063   
C12      C      0.075040000000     0.508490000000     0.010800000000     0.471351   
C13      C      0.977930000000     0.506560000000     0.585960000000     0.477217   
C14      C      0.974750000000     0.507450000000     0.411180000000     0.477266   
C15      C      0.889520000000     0.506290000000     0.498810000000     0.478317   
C16      C      0.063340000000     0.512600000000     0.496550000000     0.475453   
C17      C      0.498230000000     0.008990000000     0.099490000000     0.476596   
C18      C      0.481480000000     0.007080000000     0.925330000000     0.474952   
C19      C      0.403660000000     0.011080000000     0.019930000000     0.482135   
C20      C      0.576520000000     0.008290000000     0.003610000000     0.47714    
C21      C      0.473400000000     0.007730000000     0.600030000000     0.475661   
C22      C      0.494200000000     0.009070000000     0.426190000000     0.476546   
C23      C      0.398220000000     0.012490000000     0.502290000000     0.477796   
C24      C      0.570190000000     0.002790000000     0.524120000000     0.474826   
C25      C      0.468060000000     0.512480000000     0.091710000000     0.47503    
C26      C      0.514580000000     0.508820000000     0.923030000000     0.47813    
C27      C      0.406370000000     0.503010000000     0.983460000000     0.474104   
C28      C      0.574160000000     0.510650000000     0.030240000000     0.473439   
C29      C      0.461010000000     0.508530000000     0.598900000000     0.479602   
C30      C      0.484670000000     0.510140000000     0.425350000000     0.478929   
C31      C      0.388270000000     0.511800000000     0.501920000000     0.47438    
C32      C      0.560310000000     0.503330000000     0.525800000000     0.478652   
C33      C      0.536280000000     0.462740000000     0.852610000000     0.0200845  
C34      C      0.449210000000     0.554900000000     0.671300000000     0.0188961  
C35      C      0.445720000000     0.463430000000     0.671580000000     0.039469   
C36      C      0.483320000000     0.555880000000     0.711160000000    -0.102693   
C37      C      0.504540000000     0.460350000000     0.810800000000    -0.103205   
C38      C      0.479420000000     0.460490000000     0.712150000000    -0.107744   
C39      C      0.501340000000     0.508240000000     0.783570000000     0.0208799  
C40      C      0.485250000000     0.508360000000     0.738890000000     0.0259682  
C41      C      0.538130000000     0.553080000000     0.852240000000     0.0186334  
C42      C      0.506980000000     0.556390000000     0.810030000000    -0.101468   
C43      C      0.398110000000     0.461020000000     0.688170000000     0.0419315  
C44      C      0.451280000000     0.467400000000     0.163880000000     0.017599   
C45      C      0.501570000000     0.555440000000     0.353360000000     0.0172088  
C46      C      0.487660000000     0.464160000000     0.351830000000     0.0372513  
C47      C      0.471490000000     0.562350000000     0.310550000000    -0.103513   
C48      C      0.481280000000     0.470000000000     0.206800000000    -0.103368   
C49      C      0.455950000000     0.470660000000     0.310230000000    -0.106513   
C50      C      0.470660000000     0.515770000000     0.234780000000     0.019731   
C51      C      0.468600000000     0.515690000000     0.282090000000     0.0233332  
C52      C      0.444530000000     0.558520000000     0.161570000000     0.0171076  
C53      C      0.471270000000     0.563110000000     0.206910000000    -0.103161   
C54      C      0.533770000000     0.449590000000     0.336730000000     0.0370492  
C55      C      0.438170000000     0.651370000000     0.528730000000    -0.00138046 
C56      C      0.517660000000     0.863990000000     0.489990000000     0.00433657 
C57      C      0.459830000000     0.863740000000     0.550750000000     0.0248271  
C58      C      0.506820000000     0.811450000000     0.475380000000    -0.0937663  
C59      C      0.445880000000     0.704610000000     0.542600000000    -0.0901653  
C60      C      0.443540000000     0.811970000000     0.539000000000    -0.0984013  
C61      C      0.476600000000     0.732750000000     0.509240000000     0.0139567  
C62      C      0.477980000000     0.783030000000     0.510260000000     0.0203547  
C63      C      0.499370000000     0.650320000000     0.473840000000     0.000623769
C64      C      0.511990000000     0.704000000000     0.481520000000    -0.0912728  
C65      C      0.494350000000     0.862910000000     0.587890000000     0.0391082  
C66      C      0.448550000000     0.149760000000     0.534670000000    -0.00305807 
C67      C      0.508890000000     0.366100000000     0.484780000000    -4.3214e-05 
C68      C      0.458810000000     0.363500000000     0.551910000000     0.0216399  
C69      C      0.500000000000     0.312590000000     0.472300000000    -0.0921666  
C70      C      0.456100000000     0.203020000000     0.548230000000    -0.0902572  
C71      C      0.445740000000     0.309870000000     0.543650000000    -0.0968838  
C72      C      0.480190000000     0.232670000000     0.510890000000     0.0142577  
C73      C      0.478180000000     0.282950000000     0.511090000000     0.019451   
C74      C      0.503110000000     0.151220000000     0.473110000000     0.000124406
C75      C      0.513650000000     0.205760000000     0.479280000000    -0.0916962  
C76      C      0.497040000000     0.367670000000     0.584950000000     0.0412236  
C77      C      0.512840000000     0.866360000000     0.975540000000    -0.00214839 
C78      C      0.451190000000     0.651610000000     0.032010000000     0.0047689  
C79      C      0.528680000000     0.654360000000     0.000300000000     0.0235524  
C80      C      0.441130000000     0.704590000000     0.017790000000    -0.0942183  
C81      C      0.523860000000     0.812840000000     0.985170000000    -0.0898942  
C82      C      0.522330000000     0.705730000000     0.980410000000    -0.0974436  
C83      C      0.483060000000     0.784140000000     0.003750000000     0.0137398  
C84      C      0.483530000000     0.733830000000     0.003660000000     0.0199251  
C85      C      0.444090000000     0.866970000000     0.020350000000    -0.000945271
C86      C      0.446230000000     0.811930000000     0.030410000000    -0.0907858  
C87      C      0.549860000000     0.656350000000     0.046440000000     0.0389993  
C88      C      0.530400000000     0.150740000000     0.990490000000     0.00226017 
C89      C      0.455630000000     0.364750000000     0.032990000000     0.00357232 
C90      C      0.510780000000     0.364300000000     0.969940000000     0.0228367  
C91      C      0.467010000000     0.312430000000     0.047720000000    -0.0935458  
C92      C      0.521890000000     0.204140000000     0.977360000000    -0.0917368  
C93      C      0.525680000000     0.311470000000     0.979700000000    -0.0974121  
C94      C      0.494960000000     0.233080000000     0.013420000000     0.0153122  
C95      C      0.493290000000     0.283330000000     0.011400000000     0.0201748  
C96      C      0.477100000000     0.151690000000     0.053210000000     0.00086062 
C97      C      0.463200000000     0.205030000000     0.045850000000    -0.0908904  
C98      C      0.475300000000     0.366460000000     0.933790000000     0.0405346  
C99      C      0.473000000000     0.054850000000     0.672530000000     0.0149966  
C100     C      0.466760000000     0.961720000000     0.853080000000     0.0170381  
C101     C      0.474390000000     0.055050000000     0.853470000000     0.0358006  
C102     C      0.491450000000     0.960580000000     0.806630000000    -0.104716   
C103     C      0.443410000000     0.055790000000     0.715990000000    -0.104453   
C104     C      0.498150000000     0.051600000000     0.806380000000    -0.107485   
C105     C      0.452400000000     0.009520000000     0.742960000000     0.024441   
C106     C      0.480700000000     0.007170000000     0.780650000000     0.0248895  
C107     C      0.465710000000     0.961230000000     0.672470000000     0.0146498  
C108     C      0.436610000000     0.965360000000     0.716090000000    -0.103644   
C109     C      0.426380000000     0.070120000000     0.847800000000     0.0413017  
C110     C      0.499900000000     0.055290000000     0.353250000000     0.0156966  
C111     C      0.506650000000     0.962070000000     0.171920000000     0.0166339  
C112     C      0.508720000000     0.055560000000     0.171880000000     0.0369623  
C113     C      0.479310000000     0.963540000000     0.216840000000    -0.104395   
C114     C      0.531530000000     0.051940000000     0.311360000000    -0.104636   
C115     C      0.482380000000     0.054880000000     0.217690000000    -0.107941   
C116     C      0.518610000000     0.007050000000     0.283830000000     0.0246875  
C117     C      0.493310000000     0.008400000000     0.243980000000     0.0252763  
C118     C      0.495280000000     0.961830000000     0.353630000000     0.0153986  
C119     C      0.526980000000     0.961150000000     0.311660000000    -0.104294   
C120     C      0.557710000000     0.064360000000     0.180120000000     0.0398675  
C121     C      0.818070000000     0.459070000000     0.486690000000     0.0173303  
C122     C      0.634080000000     0.546160000000     0.537350000000     0.0180896  
C123     C      0.629150000000     0.454110000000     0.544380000000     0.0361363  
C124     C      0.676900000000     0.541510000000     0.507760000000    -0.104764   
C125     C      0.779020000000     0.449580000000     0.520840000000    -0.104066   
C126     C      0.675040000000     0.448980000000     0.518510000000    -0.107641   
C127     C      0.749940000000     0.495340000000     0.526230000000     0.0214415  
C128     C      0.703370000000     0.495650000000     0.520450000000     0.0248865  
C129     C      0.814960000000     0.549330000000     0.503460000000     0.0163696  
C130     C      0.777600000000     0.540310000000     0.539240000000    -0.103256   
C131     C      0.636380000000     0.450210000000     0.594440000000     0.0455924  
C132     C      0.134270000000     0.561540000000     0.489460000000     0.0158992  
C133     C      0.314280000000     0.468360000000     0.498710000000     0.0155328  
C134     C      0.318060000000     0.562220000000     0.499880000000     0.0353662  
C135     C      0.272100000000     0.472070000000     0.467810000000    -0.103346   
C136     C      0.178720000000     0.562860000000     0.517430000000    -0.105406   
C137     C      0.274090000000     0.563000000000     0.470700000000    -0.106348   
C138     C      0.206510000000     0.517570000000     0.506490000000     0.0260448  
C139     C      0.245930000000     0.517710000000     0.480720000000     0.022915   
C140     C      0.137040000000     0.468400000000     0.491330000000     0.0160855  
C141     C      0.180860000000     0.471640000000     0.519960000000    -0.10558    
C142     C      0.307480000000     0.574070000000     0.548150000000     0.0408033  
C143     C      0.644480000000     0.467240000000     0.055170000000     0.0174154  
C144     C      0.830090000000     0.554640000000     0.975530000000     0.0176404  
C145     C      0.829890000000     0.462930000000     0.977120000000     0.0375429  
C146     C      0.788560000000     0.557390000000     0.007460000000    -0.10271    
C147     C      0.687930000000     0.463150000000     0.026150000000    -0.101319   
C148     C      0.787880000000     0.462270000000     0.008960000000    -0.106276   
C149     C      0.715170000000     0.510780000000     0.022370000000     0.0180544  
C150     C      0.760760000000     0.510110000000     0.009850000000     0.0230522  
C151     C      0.643980000000     0.557650000000     0.050890000000     0.0157399  
C152     C      0.688290000000     0.558840000000     0.022760000000    -0.100654   
C153     C      0.815930000000     0.456800000000     0.928700000000     0.0387988  
C154     C      0.146180000000     0.462730000000     0.028510000000     0.0180584  
C155     C      0.336560000000     0.546470000000     0.957410000000     0.0172089  
C156     C      0.336890000000     0.455140000000     0.963460000000     0.0363372  
C157     C      0.291750000000     0.550860000000     0.984170000000    -0.101392   
C158     C      0.189120000000     0.458210000000     0.998640000000    -0.102549   
C159     C      0.290370000000     0.455470000000     0.988530000000    -0.104781   
C160     C      0.217510000000     0.505120000000     0.996080000000     0.0187813  
C161     C      0.263790000000     0.503690000000     0.986230000000     0.0222102  
C162     C      0.147570000000     0.553460000000     0.024450000000     0.0174413  
C163     C      0.190780000000     0.553240000000     0.994590000000    -0.101856   
C164     C      0.330640000000     0.445990000000     0.913840000000     0.0453686  
C165     C      0.978830000000     0.459990000000     0.659250000000     0.0149593  
C166     C      0.008210000000     0.553690000000     0.839380000000     0.0171507  
C167     C      0.008770000000     0.460530000000     0.840250000000     0.0370306  
C168     C      0.976490000000     0.552530000000     0.797450000000    -0.104866   
C169     C      0.014380000000     0.461470000000     0.697990000000    -0.103648   
C170     C      0.977820000000     0.460870000000     0.797480000000    -0.108167   
C171     C      0.006360000000     0.507080000000     0.726630000000     0.024247   
C172     C      0.986430000000     0.506860000000     0.769480000000     0.0254836  
C173     C      0.977410000000     0.552900000000     0.659310000000     0.0156563  
C174     C      0.013120000000     0.552760000000     0.697870000000    -0.104301   
C175     C      0.056740000000     0.452220000000     0.826950000000     0.0397855  
C176     C      0.976290000000     0.553180000000     0.158640000000     0.016045   
C177     C      0.970340000000     0.460990000000     0.338270000000     0.0160321  
C178     C      0.968960000000     0.554790000000     0.338820000000     0.0355786  
C179     C      0.998720000000     0.462780000000     0.294090000000    -0.104166   
C180     C      0.945330000000     0.551530000000     0.201060000000    -0.105481   
C181     C      0.996280000000     0.553930000000     0.293600000000    -0.106807   
C182     C      0.957660000000     0.506650000000     0.228730000000     0.0259033  
C183     C      0.985000000000     0.507740000000     0.267140000000     0.0234822  
C184     C      0.977650000000     0.459450000000     0.159150000000     0.0157584  
C185     C      0.947010000000     0.460670000000     0.201880000000    -0.105453   
C186     C      0.920360000000     0.564900000000     0.329570000000     0.0416957  
C187     C      0.010630000000     0.651070000000     0.476060000000    -0.00138451 
C188     C      0.954260000000     0.864080000000     0.541810000000     0.000705242
C189     C      0.999430000000     0.865620000000     0.471220000000     0.0212348  
C190     C      0.964710000000     0.810190000000     0.551200000000    -0.092444   
C191     C      0.001900000000     0.705140000000     0.466270000000    -0.0904244  
C192     C      0.013320000000     0.811730000000     0.475890000000    -0.0966211  
C193     C      0.981610000000     0.732580000000     0.507290000000     0.0140947  
C194     C      0.983520000000     0.782820000000     0.509440000000     0.0192957  
C195     C      0.963400000000     0.649350000000     0.543520000000    -0.000776201
C196     C      0.951460000000     0.703760000000     0.540640000000    -0.0908851  
C197     C      0.959060000000     0.871220000000     0.441080000000     0.0401916  
C198     C      0.956520000000     0.148950000000     0.478740000000    -0.00217473 
C199     C      0.008370000000     0.366670000000     0.534520000000     0.00290915 
C200     C      0.938320000000     0.362670000000     0.488910000000     0.0227492  
C201     C      0.020590000000     0.313160000000     0.525060000000    -0.093173   
C202     C      0.943400000000     0.202390000000     0.486360000000    -0.0903209  
C203     C      0.946460000000     0.309290000000     0.474990000000    -0.0974979  
C204     C      0.981720000000     0.232660000000     0.507980000000     0.0136877  
C205     C      0.981010000000     0.282920000000     0.505660000000     0.0196192  
C206     C      0.021200000000     0.151940000000     0.529420000000    -0.00107008 
C207     C      0.015330000000     0.206470000000     0.539850000000    -0.0906898  
C208     C      0.908290000000     0.366000000000     0.529700000000     0.0393488  
C209     C      0.639370000000     0.953640000000     0.541620000000     0.0157084  
C210     C      0.823840000000     0.043520000000     0.501570000000     0.0171647  
C211     C      0.829750000000     0.951680000000     0.490760000000     0.0352985  
C212     C      0.783290000000     0.036260000000     0.533800000000    -0.10469    
C213     C      0.681580000000     0.945300000000     0.511130000000    -0.103547   
C214     C      0.785970000000     0.944670000000     0.519700000000    -0.107066   
C215     C      0.711150000000     0.991040000000     0.509990000000     0.0217541  
C216     C      0.756960000000     0.990820000000     0.519860000000     0.0242663  
C217     C      0.645220000000     0.044640000000     0.529520000000     0.016328   
C218     C      0.685070000000     0.036830000000     0.496450000000    -0.103811   
C219     C      0.818880000000     0.949450000000     0.441290000000     0.0458905  
C220     C      0.146640000000     0.969820000000     0.524950000000     0.0169908  
C221     C      0.329040000000     0.061550000000     0.485000000000     0.0166913  
C222     C      0.323750000000     0.969730000000     0.497200000000     0.0376706  
C223     C      0.285630000000     0.069320000000     0.513780000000    -0.104227   
C224     C      0.184260000000     0.977980000000     0.489400000000    -0.103466   
C225     C      0.281680000000     0.977730000000     0.527610000000    -0.106711   
C226     C      0.210780000000     0.023800000000     0.501770000000     0.0210709  
C227     C      0.256200000000     0.023600000000     0.513190000000     0.0237349  
C228     C      0.141040000000     0.060980000000     0.537090000000     0.0160337  
C229     C      0.181040000000     0.069330000000     0.503740000000    -0.104088   
C230     C      0.309970000000     0.956130000000     0.450160000000     0.0389272  
C231     C      0.027890000000     0.651110000000     0.981920000000    -0.000653979
C232     C      0.962840000000     0.863370000000     0.044390000000     0.00448546 
C233     C      0.007950000000     0.864730000000     0.973540000000     0.0239034  
C234     C      0.974720000000     0.809690000000     0.054120000000    -0.0940579  
C235     C      0.019980000000     0.705400000000     0.972080000000    -0.0902099  
C236     C      0.025630000000     0.812510000000     0.980350000000    -0.097526   
C237     C      0.995690000000     0.732330000000     0.011200000000     0.0134105  
C238     C      0.995950000000     0.782630000000     0.013200000000     0.0196618  
C239     C      0.974730000000     0.648330000000     0.044690000000    -0.00133515 
C240     C      0.963730000000     0.702980000000     0.042270000000    -0.0907403  
C241     C      0.966840000000     0.865290000000     0.943940000000     0.0384427  
C242     C      0.961380000000     0.366320000000     0.034750000000    -0.000558283
C243     C      0.020340000000     0.150680000000     0.979680000000     0.00308376 
C244     C      0.948310000000     0.151840000000     0.022050000000     0.0228372  
C245     C      0.031110000000     0.204200000000     0.990200000000    -0.0928592  
C246     C      0.949930000000     0.312830000000     0.025080000000    -0.0911897  
C247     C      0.953610000000     0.205920000000     0.035290000000    -0.0971462  
C248     C      0.990480000000     0.283610000000     0.006520000000     0.0145009  
C249     C      0.989990000000     0.233300000000     0.007580000000     0.0200342  
C250     C      0.031240000000     0.365190000000     0.991500000000     0.0011446  
C251     C      0.026910000000     0.311020000000     0.978860000000    -0.0912371  
C252     C      0.920120000000     0.146050000000     0.980210000000     0.0405776  
C253     C      0.651090000000     0.051380000000     0.000070000000     0.0178957  
C254     C      0.836420000000     0.955750000000     0.035280000000     0.0186323  
C255     C      0.833430000000     0.048150000000     0.028080000000     0.0383801  
C256     C      0.792810000000     0.951030000000     0.006200000000    -0.105194   
C257     C      0.691880000000     0.042740000000     0.031890000000    -0.105234   
C258     C      0.791390000000     0.043390000000     0.997000000000    -0.108626   
C259     C      0.718210000000     0.997630000000     0.016590000000     0.0225203  
C260     C      0.764420000000     0.997530000000     0.008520000000     0.026282   
C261     C      0.646230000000     0.960990000000     0.984400000000     0.0174078  
C262     C      0.688900000000     0.951780000000     0.013880000000    -0.104531   
C263     C      0.819630000000     0.059220000000     0.075700000000     0.038945   
C264     C      0.151410000000     0.057840000000     0.006170000000     0.0163817  
C265     C      0.330120000000     0.966490000000     0.025150000000     0.0177404  
C266     C      0.332710000000     0.059880000000     0.028210000000     0.0364486  
C267     C      0.288640000000     0.969830000000     0.993300000000    -0.104043   
C268     C      0.192300000000     0.059040000000     0.039100000000    -0.105383   
C269     C      0.289630000000     0.061110000000     0.997810000000    -0.107336   
C270     C      0.221400000000     0.014190000000     0.030110000000     0.0253049  
C271     C      0.261690000000     0.015150000000     0.005890000000     0.0238944  
C272     C      0.154420000000     0.964860000000     0.007230000000     0.0163284  
C273     C      0.195020000000     0.967760000000     0.040350000000    -0.104534   
C274     C      0.320530000000     0.067970000000     0.076790000000     0.0390861  
C275     C      0.972690000000     0.053940000000     0.676740000000     0.0152401  
C276     C      0.983350000000     0.961850000000     0.856810000000     0.0154804  
C277     C      0.975050000000     0.055250000000     0.856600000000     0.034978   
C278     C      0.008290000000     0.965290000000     0.810620000000    -0.103067   
C279     C      0.943840000000     0.048870000000     0.720400000000    -0.105165   
C280     C      0.999530000000     0.055960000000     0.809800000000    -0.106754   
C281     C      0.961170000000     0.005210000000     0.747060000000     0.0257042  
C282     C      0.989890000000     0.008740000000     0.784330000000     0.0233639  
C283     C      0.981810000000     0.960680000000     0.676020000000     0.0154975  
C284     C      0.953280000000     0.958590000000     0.720220000000    -0.104988   
C285     C      0.925410000000     0.061320000000     0.850280000000     0.048059   
C286     C      0.993820000000     0.059620000000     0.357320000000     0.0147975  
C287     C      0.007560000000     0.966190000000     0.177070000000     0.0177968  
C288     C      0.002520000000     0.059690000000     0.175240000000     0.0368618  
C289     C      0.979480000000     0.966470000000     0.221540000000    -0.10555    
C290     C      0.024460000000     0.060890000000     0.314550000000    -0.103952   
C291     C      0.975460000000     0.057630000000     0.220570000000    -0.10858    
C292     C      0.016200000000     0.014830000000     0.286920000000     0.0247591  
C293     C      0.989840000000     0.012980000000     0.247820000000     0.0263232  
C294     C      0.999850000000     0.966160000000     0.356460000000     0.014627   
C295     C      0.030570000000     0.970240000000     0.314010000000    -0.103378   
C296     C      0.050440000000     0.073280000000     0.184150000000     0.0407901  
Cu1      Cu     0.992360000000     0.059930000000     0.015770000000     1.2177     
Cu2      Cu     0.995290000000     0.956390000000     0.016850000000     1.20305    
Cu3      Cu     0.982040000000     0.059930000000     0.517550000000     1.20496    
Cu4      Cu     0.987560000000     0.956390000000     0.515680000000     1.2103     
Cu5      Cu     0.988580000000     0.559770000000     0.999290000000     1.1926     
Cu6      Cu     0.988410000000     0.456230000000     0.999100000000     1.20687    
Cu7      Cu     0.974840000000     0.559990000000     0.498920000000     1.20375    
Cu8      Cu     0.978030000000     0.456420000000     0.498080000000     1.2063     
Cu9      Cu     0.491220000000     0.060390000000     0.012400000000     1.21042    
Cu10     Cu     0.488900000000     0.956900000000     0.012330000000     1.20084    
Cu11     Cu     0.486740000000     0.059820000000     0.513120000000     1.19873    
Cu12     Cu     0.481740000000     0.956450000000     0.513200000000     1.21287    
Cu13     Cu     0.488780000000     0.560360000000     0.005870000000     1.19684    
Cu14     Cu     0.491490000000     0.457020000000     0.008250000000     1.2004     
Cu15     Cu     0.476890000000     0.559980000000     0.512710000000     1.20323    
Cu16     Cu     0.472310000000     0.456580000000     0.511960000000     1.20186    
H1       H      0.518210000000     0.430310000000     0.789130000000     0.0501538  
H2       H      0.414110000000     0.558170000000     0.685740000000     0.0363398  
H3       H      0.574240000000     0.552130000000     0.840150000000     0.0273988  
H4       H      0.522450000000     0.585090000000     0.787970000000     0.0447891  
H5       H      0.472670000000     0.587320000000     0.732750000000     0.0460108  
H6       H      0.467520000000     0.430140000000     0.734560000000     0.0547467  
H7       H      0.531160000000     0.429610000000     0.874080000000     0.0392802  
H8       H      0.454870000000     0.587740000000     0.649510000000     0.0380044  
H9       H      0.472580000000     0.568980000000     0.821200000000     0.055454   
H10      H      0.513540000000     0.449970000000     0.698490000000     0.0634323  
H11      H      0.533970000000     0.586680000000     0.873350000000     0.0357122  
H12      H      0.469630000000     0.450150000000     0.822550000000     0.0648289  
H13      H      0.518040000000     0.563490000000     0.697330000000     0.0554746  
H14      H      0.451100000000     0.430430000000     0.650040000000     0.0400363  
H15      H      0.572260000000     0.462060000000     0.840110000000     0.0287954  
H16      H      0.477930000000     0.435000000000     0.225200000000     0.0471336  
H17      H      0.537860000000     0.553290000000     0.342020000000     0.0323003  
H18      H      0.407380000000     0.558020000000     0.169860000000     0.0250854  
H19      H      0.454940000000     0.593850000000     0.225560000000     0.0442396  
H20      H      0.487070000000     0.593200000000     0.291450000000     0.0448393  
H21      H      0.453940000000     0.435860000000     0.291210000000     0.0471951  
H22      H      0.460840000000     0.434350000000     0.143820000000     0.0345493  
H23      H      0.498520000000     0.588630000000     0.375200000000     0.0335745  
H24      H      0.507350000000     0.573110000000     0.199380000000     0.0561154  
H25      H      0.420660000000     0.476500000000     0.323430000000     0.0521666  
H26      H      0.451020000000     0.591610000000     0.140360000000     0.0359548  
H27      H      0.517660000000     0.472050000000     0.195820000000     0.0584659  
H28      H      0.436450000000     0.573280000000     0.321240000000     0.0502933  
H29      H      0.473760000000     0.433510000000     0.372710000000     0.033465   
H30      H      0.415040000000     0.463100000000     0.174820000000     0.0255305  
H31      H      0.411400000000     0.721500000000     0.544640000000     0.0425873  
H32      H      0.546430000000     0.864360000000     0.515010000000     0.0329963  
H33      H      0.473900000000     0.647160000000     0.445500000000     0.0282427  
H34      H      0.516580000000     0.720060000000     0.446720000000     0.0410465  
H35      H      0.540420000000     0.793630000000     0.469500000000     0.0424368  
H36      H      0.435430000000     0.793450000000     0.572050000000     0.046268   
H37      H      0.423060000000     0.631490000000     0.558380000000     0.0335057  
H38      H      0.529350000000     0.884620000000     0.459290000000     0.0276155  
H39      H      0.545220000000     0.705740000000     0.500050000000     0.049258   
H40      H      0.411230000000     0.814630000000     0.518960000000     0.0508236  
H41      H      0.530620000000     0.630220000000     0.463140000000     0.0293176  
H42      H      0.461770000000     0.705590000000     0.577360000000     0.0508159  
H43      H      0.487980000000     0.812290000000     0.442150000000     0.0486736  
H44      H      0.429870000000     0.884620000000     0.563590000000     0.0258908  
H45      H      0.413320000000     0.649260000000     0.499750000000     0.0296629  
H46      H      0.421610000000     0.218010000000     0.555760000000     0.041315   
H47      H      0.540180000000     0.369010000000     0.506330000000     0.0359338  
H48      H      0.475040000000     0.146260000000     0.447620000000     0.0285116  
H49      H      0.513430000000     0.221700000000     0.444140000000     0.0417012  
H50      H      0.533720000000     0.297350000000     0.462230000000     0.0434488  
H51      H      0.443850000000     0.291930000000     0.577930000000     0.0473863  
H52      H      0.437270000000     0.129140000000     0.565530000000     0.0297862  
H53      H      0.515860000000     0.386550000000     0.452580000000     0.0316829  
H54      H      0.548620000000     0.209690000000     0.493830000000     0.049846   
H55      H      0.410910000000     0.308690000000     0.528300000000     0.049509   
H56      H      0.534080000000     0.132970000000     0.459180000000     0.0294922  
H57      H      0.476990000000     0.204450000000     0.580180000000     0.0513188  
H58      H      0.476960000000     0.311150000000     0.441890000000     0.0485886  
H59      H      0.428710000000     0.381870000000     0.567510000000     0.0293266  
H60      H      0.420750000000     0.147260000000     0.508600000000     0.029856   
H61      H      0.535950000000     0.797100000000     0.952070000000     0.040669   
H62      H      0.463300000000     0.650410000000     0.068260000000     0.033382   
H63      H      0.423430000000     0.873920000000     0.988810000000     0.0277994  
H64      H      0.411740000000     0.797210000000     0.022330000000     0.0401769  
H65      H      0.423450000000     0.721460000000     0.047600000000     0.0417129  
H66      H      0.555750000000     0.724790000000     0.983530000000     0.0455421  
H67      H      0.545300000000     0.885990000000     0.968790000000     0.0295418  
H68      H      0.418830000000     0.630440000000     0.030670000000     0.026682   
H69      H      0.452750000000     0.806700000000     0.067790000000     0.0484184  
H70      H      0.514270000000     0.702630000000     0.943120000000     0.0497426  
H71      H      0.426490000000     0.885010000000     0.049640000000     0.0298484  
H72      H      0.552140000000     0.810920000000     0.010690000000     0.0501738  
H73      H      0.417010000000     0.704300000000     0.988210000000     0.0474811  
H74      H      0.552310000000     0.634040000000     0.977300000000     0.0261696  
H75      H      0.491350000000     0.869560000000     0.944040000000     0.0295411  
H76      H      0.556140000000     0.220610000000     0.971620000000     0.042609   
H77      H      0.426120000000     0.364850000000     0.008860000000     0.0344678  
H78      H      0.506340000000     0.149380000000     0.077690000000     0.0303239  
H79      H      0.462520000000     0.222190000000     0.080500000000     0.0422874  
H80      H      0.433810000000     0.294800000000     0.056010000000     0.0429865  
H81      H      0.529930000000     0.292890000000     0.945940000000     0.0473792  
H82      H      0.540740000000     0.130280000000     0.959150000000     0.028913   
H83      H      0.444860000000     0.385540000000     0.063900000000     0.0278965  
H84      H      0.428030000000     0.206000000000     0.031310000000     0.0512659  
H85      H      0.559810000000     0.312370000000     0.996550000000     0.0500521  
H86      H      0.447880000000     0.131780000000     0.068840000000     0.0321042  
H87      H      0.502570000000     0.205170000000     0.944410000000     0.0521635  
H88      H      0.487980000000     0.313700000000     0.079620000000     0.0489106  
H89      H      0.541230000000     0.384040000000     0.956710000000     0.0273679  
H90      H      0.558980000000     0.148150000000     0.015710000000     0.0295761  
H91      H      0.448430000000     0.090240000000     0.735070000000     0.0492759  
H92      H      0.429310000000     0.958900000000     0.846920000000     0.0316897  
H93      H      0.500950000000     0.949970000000     0.682250000000     0.0363137  
H94      H      0.436630000000     0.930490000000     0.735180000000     0.0456515  
H95      H      0.483440000000     0.926260000000     0.788410000000     0.0455076  
H96      H      0.495860000000     0.086720000000     0.787790000000     0.0488899  
H97      H      0.463520000000     0.086880000000     0.650980000000     0.0357802  
H98      H      0.477150000000     0.928800000000     0.872910000000     0.0338483  
H99      H      0.400320000000     0.970680000000     0.705720000000     0.0520414  
H100     H      0.535430000000     0.046710000000     0.812480000000     0.0524965  
H101     H      0.451010000000     0.931570000000     0.650930000000     0.0398716  
H102     H      0.406840000000     0.056630000000     0.705420000000     0.0540768  
H103     H      0.528910000000     0.958950000000     0.813100000000     0.0523414  
H104     H      0.491900000000     0.084540000000     0.873060000000     0.0353583  
H105     H      0.509440000000     0.059520000000     0.682600000000     0.0306974  
H106     H      0.531650000000     0.086710000000     0.292130000000     0.0487365  
H107     H      0.543230000000     0.955360000000     0.180270000000     0.0337636  
H108     H      0.459400000000     0.957030000000     0.341730000000     0.0318077  
H109     H      0.523350000000     0.926370000000     0.292830000000     0.0454242  
H110     H      0.482750000000     0.928300000000     0.234900000000     0.0455613  
H111     H      0.487550000000     0.089420000000     0.236650000000     0.0485291  
H112     H      0.511570000000     0.086350000000     0.374960000000     0.0342395  
H113     H      0.494470000000     0.930380000000     0.151350000000     0.0376452  
H114     H      0.562990000000     0.961140000000     0.324020000000     0.053801   
H115     H      0.445180000000     0.054770000000     0.209630000000     0.055279   
H116     H      0.503840000000     0.929820000000     0.375590000000     0.0356851  
H117     H      0.567300000000     0.047840000000     0.323830000000     0.0554343  
H118     H      0.442350000000     0.966410000000     0.208220000000     0.0545149  
H119     H      0.495660000000     0.087180000000     0.151740000000     0.0338096  
H120     H      0.464710000000     0.063990000000     0.341240000000     0.0297907  
H121     H      0.760100000000     0.417700000000     0.507170000000     0.0477007  
H122     H      0.644590000000     0.551920000000     0.573740000000     0.0333207  
H123     H      0.798510000000     0.558650000000     0.470060000000     0.0315025  
H124     H      0.757680000000     0.574050000000     0.544930000000     0.0456333  
H125     H      0.696290000000     0.576040000000     0.509720000000     0.0458704  
H126     H      0.692940000000     0.417020000000     0.533620000000     0.0512215  
H127     H      0.840810000000     0.426600000000     0.485970000000     0.0400132  
H128     H      0.615040000000     0.579290000000     0.526210000000     0.0368193  
H129     H      0.794390000000     0.532920000000     0.572880000000     0.0561813  
H130     H      0.668040000000     0.440360000000     0.481790000000     0.0538041  
H131     H      0.835650000000     0.581330000000     0.514530000000     0.0377505  
H132     H      0.793460000000     0.439290000000     0.554870000000     0.0613771  
H133     H      0.666250000000     0.538190000000     0.471160000000     0.0554162  
H134     H      0.607620000000     0.422410000000     0.534250000000     0.038027   
H135     H      0.803030000000     0.462710000000     0.451680000000     0.0297093  
H136     H      0.196110000000     0.598060000000     0.511660000000     0.0476192  
H137     H      0.303030000000     0.461180000000     0.534650000000     0.0355515  
H138     H      0.146430000000     0.462180000000     0.454690000000     0.0276079  
H139     H      0.200490000000     0.437280000000     0.517470000000     0.0457396  
H140     H      0.252200000000     0.437790000000     0.468610000000     0.0438726  
H141     H      0.256190000000     0.598270000000     0.474640000000     0.0466868  
H142     H      0.112770000000     0.593010000000     0.500270000000     0.0336338  
H143     H      0.334580000000     0.436180000000     0.487320000000     0.0370852  
H144     H      0.171170000000     0.474290000000     0.556890000000     0.055304   
H145     H      0.284170000000     0.562230000000     0.433790000000     0.0498716  
H146     H      0.117340000000     0.435970000000     0.503110000000     0.0345562  
H147     H      0.169890000000     0.562570000000     0.554660000000     0.056427   
H148     H      0.283770000000     0.475280000000     0.431490000000     0.0503339  
H149     H      0.340520000000     0.591880000000     0.486680000000     0.0320687  
H150     H      0.142770000000     0.566900000000     0.452480000000     0.0266381  
H151     H      0.708370000000     0.433980000000     0.042910000000     0.0446449  
H152     H      0.817800000000     0.556250000000     0.939320000000     0.0331735  
H153     H      0.652940000000     0.560530000000     0.088020000000     0.0314823  
H154     H      0.708770000000     0.588890000000     0.038030000000     0.0449281  
H155     H      0.768000000000     0.588370000000     0.994150000000     0.0451203  
H156     H      0.766640000000     0.430710000000     0.998000000000     0.0494215  
H157     H      0.623850000000     0.433450000000     0.050630000000     0.0374293  
H158     H      0.851470000000     0.587700000000     0.981180000000     0.0372421  
H159     H      0.679920000000     0.568670000000     0.986600000000     0.0527046  
H160     H      0.799630000000     0.454750000000     0.044660000000     0.0519458  
H161     H      0.623380000000     0.590280000000     0.041800000000     0.0420602  
H162     H      0.678590000000     0.450910000000     0.990900000000     0.0551023  
H163     H      0.800300000000     0.566680000000     0.042770000000     0.0518569  
H164     H      0.850990000000     0.430470000000     0.986040000000     0.035276   
H165     H      0.654610000000     0.469100000000     0.092060000000     0.0280732  
H166     H      0.208670000000     0.427570000000     0.014000000000     0.0442042  
H167     H      0.328370000000     0.545310000000     0.920040000000     0.0345533  
H168     H      0.158110000000     0.556400000000     0.061150000000     0.0251699  
H169     H      0.211440000000     0.584380000000     0.007400000000     0.0425654  
H170     H      0.272580000000     0.580480000000     0.966620000000     0.0443117  
H171     H      0.270160000000     0.424660000000     0.974150000000     0.0503225  
H172     H      0.124840000000     0.429540000000     0.023430000000     0.0337795  
H173     H      0.356970000000     0.580180000000     0.963250000000     0.0354645  
H174     H      0.181100000000     0.560760000000     0.958280000000     0.0539918  
H175     H      0.296560000000     0.447270000000     0.025490000000     0.0504558  
H176     H      0.127280000000     0.586650000000     0.016080000000     0.032901   
H177     H      0.178950000000     0.447690000000     0.963130000000     0.0571197  
H178     H      0.299420000000     0.562710000000     0.019940000000     0.0499341  
H179     H      0.356690000000     0.423630000000     0.977150000000     0.0375243  
H180     H      0.156920000000     0.463260000000     0.065260000000     0.0253914  
H181     H      0.014530000000     0.426560000000     0.716920000000     0.0490046  
H182     H      0.044000000000     0.558480000000     0.827210000000     0.0325695  
H183     H      0.942890000000     0.556940000000     0.674940000000     0.0283631  
H184     H      0.012310000000     0.587730000000     0.716680000000     0.0448023  
H185     H      0.978940000000     0.587510000000     0.778840000000     0.0450187  
H186     H      0.980750000000     0.425890000000     0.778840000000     0.050242   
H187     H      0.986060000000     0.427760000000     0.637160000000     0.0373556  
H188     H      0.999490000000     0.586270000000     0.860490000000     0.0362636  
H189     H      0.047700000000     0.551560000000     0.681950000000     0.0543327  
H190     H      0.941660000000     0.461630000000     0.809390000000     0.0575046  
H191     H      0.983420000000     0.585490000000     0.637310000000     0.0335459  
H192     H      0.048970000000     0.463710000000     0.682180000000     0.0556725  
H193     H      0.940530000000     0.550820000000     0.809830000000     0.0551193  
H194     H      0.998220000000     0.428810000000     0.861670000000     0.0377451  
H195     H      0.944400000000     0.454610000000     0.674730000000     0.0325873  
H196     H      0.946660000000     0.586520000000     0.219900000000     0.0484963  
H197     H      0.934000000000     0.454000000000     0.329080000000     0.0325381  
H198     H      0.013570000000     0.452980000000     0.170190000000     0.0278275  
H199     H      0.949850000000     0.426180000000     0.221370000000     0.0448344  
H200     H      0.996090000000     0.427790000000     0.275390000000     0.0440878  
H201     H      0.992080000000     0.588540000000     0.274500000000     0.0468907  
H202     H      0.965110000000     0.584320000000     0.136790000000     0.0325646  
H203     H      0.982260000000     0.429320000000     0.359030000000     0.036937   
H204     H      0.910730000000     0.461880000000     0.190410000000     0.0530085  
H205     H      0.033290000000     0.553160000000     0.302450000000     0.0505484  
H206     H      0.967170000000     0.427730000000     0.137680000000     0.0334682  
H207     H      0.909220000000     0.548450000000     0.189330000000     0.055099   
H208     H      0.035450000000     0.465780000000     0.303630000000     0.0512721  
H209     H      0.982270000000     0.585840000000     0.359580000000     0.0340401  
H210     H      0.011940000000     0.560870000000     0.169860000000     0.0274505  
H211     H      0.035540000000     0.720620000000     0.456170000000     0.0407005  
H212     H      0.921490000000     0.867460000000     0.522680000000     0.034923   
H213     H      0.994360000000     0.644010000000     0.565280000000     0.0276976  
H214     H      0.954640000000     0.718030000000     0.576270000000     0.0404906  
H215     H      0.932060000000     0.794000000000     0.563350000000     0.0418176  
H216     H      0.012760000000     0.795730000000     0.440740000000     0.0458956  
H217     H      0.017910000000     0.632150000000     0.443060000000     0.0292227  
H218     H      0.949390000000     0.882830000000     0.575290000000     0.0277836  
H219     H      0.915260000000     0.707600000000     0.529490000000     0.0498696  
H220     H      0.049190000000     0.810030000000     0.488520000000     0.0488175  
H221     H      0.934550000000     0.629910000000     0.560350000000     0.0295293  
H222     H      0.978020000000     0.708440000000     0.436650000000     0.0515486  
H223     H      0.990180000000     0.807650000000     0.579510000000     0.0475326  
H224     H      0.028340000000     0.885040000000     0.454510000000     0.0267458  
H225     H      0.041310000000     0.647100000000     0.498440000000     0.0296468  
H226     H      0.933880000000     0.216850000000     0.451950000000     0.0412076  
H227     H      0.989250000000     0.369670000000     0.567470000000     0.0339779  
H228     H      0.044680000000     0.146780000000     0.499620000000     0.0273157  
H229     H      0.050060000000     0.222670000000     0.537230000000     0.0405142  
H230     H      0.032810000000     0.298240000000     0.558380000000     0.0424008  
H231     H      0.912600000000     0.290840000000     0.474990000000     0.0461594  
H232     H      0.925240000000     0.127910000000     0.470030000000     0.0299206  
H233     H      0.040530000000     0.387690000000     0.538890000000     0.0275544  
H234     H      0.003080000000     0.210700000000     0.575850000000     0.0495015  
H235     H      0.959700000000     0.308500000000     0.439120000000     0.0492175  
H236     H      0.037190000000     0.134380000000     0.559880000000     0.0297782  
H237     H      0.912910000000     0.204080000000     0.509180000000     0.0507087  
H238     H      0.049330000000     0.311840000000     0.500050000000     0.0476428  
H239     H      0.920400000000     0.380880000000     0.459900000000     0.0268188  
H240     H      0.980430000000     0.146030000000     0.449050000000     0.0301974  
H241     H      0.699100000000     0.912930000000     0.525610000000     0.0454664  
H242     H      0.810790000000     0.050850000000     0.466280000000     0.0326991  
H243     H      0.659090000000     0.051580000000     0.564560000000     0.0287605  
H244     H      0.705720000000     0.070510000000     0.493720000000     0.0459535  
H245     H      0.763020000000     0.070230000000     0.535950000000     0.0457541  
H246     H      0.768090000000     0.912090000000     0.505950000000     0.0494158  
H247     H      0.616270000000     0.921580000000     0.538170000000     0.0379772  
H248     H      0.843040000000     0.076450000000     0.512930000000     0.0363662  
H249     H      0.670930000000     0.031100000000     0.461320000000     0.0555815  
H250     H      0.795780000000     0.936160000000     0.555800000000     0.0513075  
H251     H      0.626050000000     0.077750000000     0.518600000000     0.0372091  
H252     H      0.670490000000     0.936290000000     0.475530000000     0.0540287  
H253     H      0.796640000000     0.030490000000     0.569230000000     0.0538601  
H254     H      0.852460000000     0.920090000000     0.498210000000     0.0380785  
H255     H      0.650830000000     0.954980000000     0.578120000000     0.0300758  
H256     H      0.205080000000     0.944600000000     0.484910000000     0.049198   
H257     H      0.319200000000     0.061120000000     0.448020000000     0.0326499  
H258     H      0.154930000000     0.060000000000     0.572730000000     0.0265783  
H259     H      0.198990000000     0.102440000000     0.515980000000     0.0436193  
H260     H      0.268570000000     0.101770000000     0.498900000000     0.0442743  
H261     H      0.260880000000     0.944040000000     0.529640000000     0.0473018  
H262     H      0.127020000000     0.936590000000     0.515220000000     0.0368397  
H263     H      0.351790000000     0.093630000000     0.490020000000     0.0337984  
H264     H      0.167460000000     0.077150000000     0.468770000000     0.0524346  
H265     H      0.293800000000     0.983500000000     0.563490000000     0.0526665  
H266     H      0.117570000000     0.092840000000     0.535000000000     0.0329417  
H267     H      0.167870000000     0.983910000000     0.455300000000     0.0565203  
H268     H      0.295200000000     0.077950000000     0.549910000000     0.0504394  
H269     H      0.342840000000     0.938170000000     0.511760000000     0.0348821  
H270     H      0.162720000000     0.962930000000     0.559040000000     0.0273334  
H271     H      0.054290000000     0.721440000000     0.965570000000     0.0404968  
H272     H      0.929690000000     0.865790000000     0.025790000000     0.0336115  
H273     H      0.003410000000     0.641780000000     0.069160000000     0.027853   
H274     H      0.965240000000     0.716520000000     0.078270000000     0.0406391  
H275     H      0.942270000000     0.792370000000     0.065330000000     0.0426136  
H276     H      0.028060000000     0.795520000000     0.945700000000     0.0452304  
H277     H      0.038200000000     0.632690000000     0.949500000000     0.0289677  
H278     H      0.958210000000     0.882590000000     0.077730000000     0.0277445  
H279     H      0.928180000000     0.707570000000     0.029350000000     0.0490133  
H280     H      0.060790000000     0.814180000000     0.994860000000     0.0491828  
H281     H      0.944090000000     0.629100000000     0.058170000000     0.0298832  
H282     H      0.999060000000     0.708990000000     0.940300000000     0.0499064  
H283     H      0.999280000000     0.808130000000     0.083280000000     0.0477899  
H284     H      0.035070000000     0.885860000000     0.955650000000     0.0251488  
H285     H      0.056340000000     0.646580000000     0.007030000000     0.0283482  
H286     H      0.937510000000     0.297500000000     0.058200000000     0.041669   
H287     H      0.002460000000     0.147560000000     0.946040000000     0.034933   
H288     H      0.050980000000     0.369400000000     0.024050000000     0.0274401  
H289     H      0.061310000000     0.294850000000     0.984350000000     0.042161   
H290     H      0.044800000000     0.219860000000     0.957740000000     0.0431249  
H291     H      0.919410000000     0.223300000000     0.031850000000     0.0475791  
H292     H      0.929010000000     0.386740000000     0.040140000000     0.0297345  
H293     H      0.053130000000     0.130700000000     0.976150000000     0.0290434  
H294     H      0.018220000000     0.308030000000     0.941710000000     0.0513791  
H295     H      0.963480000000     0.207920000000     0.072210000000     0.0505421  
H296     H      0.050540000000     0.384120000000     0.963820000000     0.0313695  
H297     H      0.921680000000     0.311110000000     0.999520000000     0.0521006  
H298     H      0.058410000000     0.205790000000     0.016790000000     0.0493895  
H299     H      0.929980000000     0.133360000000     0.050640000000     0.0287644  
H300     H      0.981860000000     0.369280000000     0.066940000000     0.0293262  
H301     H      0.712080000000     0.076650000000     0.034930000000     0.0509896  
H302     H      0.826660000000     0.954020000000     0.072250000000     0.0325407  
H303     H      0.657150000000     0.964190000000     0.947830000000     0.0271496  
H304     H      0.706480000000     0.920390000000     0.997620000000     0.0451762  
H305     H      0.774810000000     0.918530000000     0.019860000000     0.0461891  
H306     H      0.771780000000     0.077890000000     0.996870000000     0.0519255  
H307     H      0.631610000000     0.083510000000     0.012900000000     0.036113   
H308     H      0.858350000000     0.923410000000     0.028300000000     0.0370533  
H309     H      0.678470000000     0.940880000000     0.049200000000     0.0552004  
H310     H      0.803630000000     0.039580000000     0.960920000000     0.0621313  
H311     H      0.623610000000     0.928450000000     0.986810000000     0.0347384  
H312     H      0.678670000000     0.035770000000     0.067180000000     0.0615842  
H313     H      0.802130000000     0.943700000000     0.969760000000     0.0563654  
H314     H      0.853390000000     0.079950000000     0.015500000000     0.0407335  
H315     H      0.664030000000     0.060330000000     0.965070000000     0.0280855  
H316     H      0.209920000000     0.094530000000     0.036440000000     0.0492773  
H317     H      0.318000000000     0.960300000000     0.060970000000     0.0314693  
H318     H      0.167640000000     0.960110000000     0.971610000000     0.0272072  
H319     H      0.215180000000     0.933660000000     0.039580000000     0.0448231  
H320     H      0.269220000000     0.935240000000     0.993470000000     0.0438004  
H321     H      0.271410000000     0.096110000000     0.002220000000     0.0491902  
H322     H      0.128970000000     0.089530000000     0.014110000000     0.0366695  
H323     H      0.350510000000     0.933950000000     0.014990000000     0.0333727  
H324     H      0.181540000000     0.969740000000     0.076110000000     0.0564001  
H325     H      0.300750000000     0.061450000000     0.961200000000     0.0564861  
H326     H      0.134040000000     0.931800000000     0.015840000000     0.0366386  
H327     H      0.179280000000     0.057590000000     0.075050000000     0.0602618  
H328     H      0.301090000000     0.973520000000     0.957280000000     0.0537983  
H329     H      0.354560000000     0.091140000000     0.017530000000     0.0374022  
H330     H      0.164130000000     0.062670000000     0.970380000000     0.0276231  
H331     H      0.942840000000     0.083650000000     0.739610000000     0.0502664  
H332     H      0.947210000000     0.951100000000     0.850480000000     0.0395068  
H333     H      0.018590000000     0.957320000000     0.685250000000     0.0287637  
H334     H      0.960090000000     0.924360000000     0.739100000000     0.0455138  
H335     H      0.006530000000     0.929900000000     0.792540000000     0.0450731  
H336     H      0.991840000000     0.089940000000     0.790780000000     0.0483946  
H337     H      0.957980000000     0.084050000000     0.655710000000     0.0382092  
H338     H      0.999700000000     0.932090000000     0.876910000000     0.0391341  
H339     H      0.916540000000     0.956260000000     0.710530000000     0.0531777  
H340     H      0.036970000000     0.058180000000     0.816340000000     0.0514541  
H341     H      0.972870000000     0.928390000000     0.654600000000     0.0340648  
H342     H      0.907700000000     0.042290000000     0.710150000000     0.0558987  
H343     H      0.045330000000     0.971120000000     0.817420000000     0.0508338  
H344     H      0.987310000000     0.087590000000     0.876220000000     0.0369843  
H345     H      0.007980000000     0.065010000000     0.686540000000     0.0291747  
H346     H      0.019740000000     0.095560000000     0.295790000000     0.0481335  
H347     H      0.044370000000     0.962440000000     0.186050000000     0.0325887  
H348     H      0.964620000000     0.956550000000     0.345210000000     0.0379747  
H349     H      0.030940000000     0.935540000000     0.294650000000     0.0459284  
H350     H      0.984800000000     0.932130000000     0.240710000000     0.0466346  
H351     H      0.977530000000     0.092910000000     0.238910000000     0.0489982  
H352     H      0.002710000000     0.091520000000     0.379270000000     0.034346   
H353     H      0.997810000000     0.933280000000     0.156870000000     0.0353723  
H354     H      0.066500000000     0.975100000000     0.325770000000     0.0535103  
H355     H      0.938560000000     0.053890000000     0.211930000000     0.0564418  
H356     H      0.012740000000     0.935410000000     0.377810000000     0.0389031  
H357     H      0.060760000000     0.061620000000     0.325990000000     0.0547809  
H358     H      0.942580000000     0.966180000000     0.212240000000     0.055659   
H359     H      0.987300000000     0.089510000000     0.154220000000     0.0371525  
H360     H      0.957620000000     0.064220000000     0.346370000000     0.0309078  
N1       N      0.452920000000     0.508870000000     0.645370000000    -0.187089   
N2       N      0.528500000000     0.508230000000     0.878070000000    -0.188035   
N3       N      0.354320000000     0.458910000000     0.703440000000    -0.100545   
N4       N      0.490080000000     0.510100000000     0.378480000000    -0.189614   
N5       N      0.456040000000     0.512900000000     0.137270000000    -0.188436   
N6       N      0.576240000000     0.436300000000     0.322750000000    -0.109026   
N7       N      0.477120000000     0.887950000000     0.509220000000    -0.238518   
N8       N      0.481550000000     0.628550000000     0.516130000000    -0.234524   
N9       N      0.526280000000     0.861980000000     0.621740000000    -0.111113   
N10      N      0.469270000000     0.387760000000     0.508130000000    -0.23591    
N11      N      0.490950000000     0.128530000000     0.517010000000    -0.23346    
N12      N      0.532230000000     0.371700000000     0.615140000000    -0.105247   
N13      N      0.484600000000     0.628860000000     0.001070000000    -0.237135   
N14      N      0.489860000000     0.887930000000     0.015330000000    -0.233476   
N15      N      0.568740000000     0.658530000000     0.089040000000    -0.11071    
N16      N      0.495690000000     0.388370000000     0.012410000000    -0.236457   
N17      N      0.488800000000     0.129010000000     0.009260000000    -0.235391   
N18      N      0.442660000000     0.368750000000     0.900690000000    -0.103993   
N19      N      0.476230000000     0.007710000000     0.878460000000    -0.188644   
N20      N      0.468210000000     0.008160000000     0.646890000000    -0.187672   
N21      N      0.382110000000     0.083830000000     0.842530000000    -0.109001   
N22      N      0.502850000000     0.008890000000     0.146440000000    -0.188078   
N23      N      0.498700000000     0.008620000000     0.379270000000    -0.188181   
N24      N      0.602860000000     0.072300000000     0.187770000000    -0.107318   
N25      N      0.606410000000     0.501140000000     0.534020000000    -0.188233   
N26      N      0.842740000000     0.504710000000     0.497740000000    -0.18698    
N27      N      0.642920000000     0.446740000000     0.640540000000    -0.104252   
N28      N      0.341610000000     0.514090000000     0.497830000000    -0.187383   
N29      N      0.110140000000     0.514180000000     0.494700000000    -0.188684   
N30      N      0.297750000000     0.584820000000     0.592650000000    -0.106755   
N31      N      0.855680000000     0.508880000000     0.982400000000    -0.188505   
N32      N      0.619160000000     0.511780000000     0.043310000000    -0.186596   
N33      N      0.803080000000     0.451280000000     0.884140000000    -0.106768   
N34      N      0.361360000000     0.501660000000     0.970160000000    -0.187084   
N35      N      0.121330000000     0.508150000000     0.018400000000    -0.187376   
N36      N      0.325000000000     0.437670000000     0.868170000000    -0.0999719  
N37      N      0.004910000000     0.507410000000     0.865690000000    -0.188068   
N38      N      0.978990000000     0.506460000000     0.633060000000    -0.188188   
N39      N      0.100910000000     0.444720000000     0.814600000000    -0.106407   
N40      N      0.973190000000     0.507760000000     0.364060000000    -0.188367   
N41      N      0.975620000000     0.506130000000     0.133170000000    -0.189361   
N42      N      0.875590000000     0.574050000000     0.320940000000    -0.107933   
N43      N      0.991840000000     0.887520000000     0.516690000000    -0.236712   
N44      N      0.970580000000     0.628780000000     0.497660000000    -0.233466   
N45      N      0.921940000000     0.876510000000     0.413530000000    -0.104627   
N46      N      0.982100000000     0.387640000000     0.496360000000    -0.237396   
N47      N      0.977100000000     0.128640000000     0.520410000000    -0.23386    
N48      N      0.880860000000     0.369210000000     0.567220000000    -0.10909    
N49      N      0.852370000000     0.998920000000     0.501010000000    -0.188136   
N50      N      0.616480000000     0.000320000000     0.530520000000    -0.188094   
N51      N      0.808890000000     0.947500000000     0.395750000000    -0.104176   
N52      N      0.351860000000     0.014700000000     0.496090000000    -0.189426   
N53      N      0.117790000000     0.014000000000     0.527810000000    -0.189301   
N54      N      0.297160000000     0.943750000000     0.406830000000    -0.108827   
N55      N      0.999300000000     0.887590000000     0.018360000000    -0.237306   
N56      N      0.985920000000     0.628740000000     0.999230000000    -0.232858   
N57      N      0.928880000000     0.865620000000     0.917120000000    -0.110388   
N58      N      0.993300000000     0.128810000000     0.016850000000    -0.237586   
N59      N      0.986090000000     0.387540000000     0.995860000000    -0.234636   
N60      N      0.894340000000     0.140730000000     0.941740000000    -0.103497   
N61      N      0.860490000000     0.002480000000     0.026910000000    -0.187863   
N62      N      0.622920000000     0.006750000000     0.997700000000    -0.188928   
N63      N      0.806870000000     0.069280000000     0.119560000000    -0.107026   
N64      N      0.357010000000     0.012450000000     0.023570000000    -0.189553   
N65      N      0.127070000000     0.010410000000     0.009350000000    -0.189357   
N66      N      0.309220000000     0.075270000000     0.121530000000    -0.10837    
N67      N      0.984020000000     0.009070000000     0.881970000000    -0.18764    
N68      N      0.974970000000     0.007280000000     0.650740000000    -0.188649   
N69      N      0.879670000000     0.066690000000     0.844400000000    -0.104373   
N70      N      0.001060000000     0.012080000000     0.150640000000    -0.188036   
N71      N      0.998170000000     0.012730000000     0.382640000000    -0.187211   
N72      N      0.094610000000     0.085610000000     0.192420000000    -0.108362   
O1       O      0.995240000000     0.050740000000     0.081220000000    -0.485019   
O2       O      0.987300000000     0.049950000000     0.950490000000    -0.486957   
O3       O      0.927630000000     0.044780000000     0.020090000000    -0.480639   
O4       O      0.057530000000     0.048210000000     0.012550000000    -0.491016   
O5       O      0.059960000000     0.967880000000     0.012910000000    -0.487493   
O6       O      0.929860000000     0.964210000000     0.021610000000    -0.484055   
O7       O      0.990730000000     0.969480000000     0.951120000000    -0.480805   
O8       O      0.999230000000     0.970290000000     0.082310000000    -0.481004   
O9       O      0.976850000000     0.048670000000     0.582530000000    -0.486443   
O10      O      0.989490000000     0.051540000000     0.451870000000    -0.487132   
O11      O      0.918010000000     0.043060000000     0.511290000000    -0.485853   
O12      O      0.047510000000     0.050210000000     0.523820000000    -0.487329   
O13      O      0.051940000000     0.969900000000     0.519950000000    -0.484934   
O14      O      0.922510000000     0.962770000000     0.507440000000    -0.486914   
O15      O      0.993770000000     0.971150000000     0.450710000000    -0.48034    
O16      O      0.982130000000     0.968400000000     0.581360000000    -0.487448   
O17      O      0.982110000000     0.546200000000     0.064510000000    -0.488008   
O18      O      0.996460000000     0.548150000000     0.934020000000    -0.482344   
O19      O      0.923710000000     0.549110000000     0.991610000000    -0.482187   
O20      O      0.053810000000     0.548960000000     0.007000000000    -0.480246   
O21      O      0.053240000000     0.468280000000     0.008520000000    -0.481833   
O22      O      0.923680000000     0.468700000000     0.991620000000    -0.48493    
O23      O      0.997520000000     0.467650000000     0.934400000000    -0.485703   
O24      O      0.981720000000     0.465740000000     0.064560000000    -0.488658   
O25      O      0.977860000000     0.546930000000     0.564320000000    -0.488324   
O26      O      0.973510000000     0.547560000000     0.433300000000    -0.483434   
O27      O      0.909980000000     0.547150000000     0.501510000000    -0.482474   
O28      O      0.040480000000     0.552080000000     0.497430000000    -0.487752   
O29      O      0.042810000000     0.471620000000     0.496750000000    -0.485589   
O30      O      0.912420000000     0.466890000000     0.496440000000    -0.481195   
O31      O      0.976820000000     0.467080000000     0.432680000000    -0.484251   
O32      O      0.977040000000     0.466390000000     0.563970000000    -0.485909   
O33      O      0.497680000000     0.049300000000     0.077740000000    -0.484723   
O34      O      0.486100000000     0.047120000000     0.947140000000    -0.484441   
O35      O      0.426340000000     0.050630000000     0.019230000000    -0.48707    
O36      O      0.556330000000     0.049120000000     0.008280000000    -0.485892   
O37      O      0.553640000000     0.968790000000     0.003780000000    -0.487124   
O38      O      0.424180000000     0.970310000000     0.017160000000    -0.48804    
O39      O      0.481100000000     0.966690000000     0.946990000000    -0.48374    
O40      O      0.494870000000     0.968780000000     0.077740000000    -0.482797   
O41      O      0.478580000000     0.047660000000     0.578300000000    -0.486077   
O42      O      0.493490000000     0.049450000000     0.447730000000    -0.484858   
O43      O      0.421720000000     0.051570000000     0.503080000000    -0.486983   
O44      O      0.550940000000     0.044140000000     0.518930000000    -0.482919   
O45      O      0.546550000000     0.963790000000     0.523700000000    -0.486194   
O46      O      0.417670000000     0.971250000000     0.506960000000    -0.485476   
O47      O      0.489990000000     0.969070000000     0.448070000000    -0.486545   
O48      O      0.473730000000     0.967380000000     0.578410000000    -0.481141   
O49      O      0.472300000000     0.552430000000     0.069810000000    -0.483208   
O50      O      0.508430000000     0.549330000000     0.943420000000    -0.483306   
O51      O      0.426540000000     0.543960000000     0.988070000000    -0.48276    
O52      O      0.552220000000     0.550350000000     0.024230000000    -0.474976   
O53      O      0.554250000000     0.469810000000     0.024600000000    -0.481839   
O54      O      0.428050000000     0.463460000000     0.990690000000    -0.480388   
O55      O      0.508210000000     0.468860000000     0.944420000000    -0.479768   
O56      O      0.474820000000     0.471960000000     0.071360000000    -0.485058   
O57      O      0.466830000000     0.548580000000     0.577560000000    -0.482538   
O58      O      0.484540000000     0.550210000000     0.447320000000    -0.489078   
O59      O      0.411620000000     0.551040000000     0.503690000000    -0.482681   
O60      O      0.540800000000     0.544560000000     0.521240000000    -0.485134   
O61      O      0.537020000000     0.464190000000     0.523420000000    -0.484678   
O62      O      0.407990000000     0.470470000000     0.505090000000    -0.480015   
O63      O      0.479870000000     0.470000000000     0.446830000000    -0.487303   
O64      O      0.462270000000     0.468250000000     0.577110000000    -0.476444   


