data_structure

_audit_creation_method RASPA-1.0
_audit_creation_date 2023-5-25
_audit_author_name 'Poobodin Mano'

_cell_length_a    28.847
_cell_length_b    27.3826
_cell_length_c    28.9151
_cell_angle_alpha 90
_cell_angle_beta  90.0012
_cell_angle_gamma 90.0039
_cell_volume      22840.2

_symmetry_cell_setting          triclinic
_symmetry_space_group_name_Hall 'P 1'
_symmetry_space_group_name_H-M  'P 1'
_symmetry_Int_Tables_number     1

_symmetry_equiv_pos_as_xyz 'x,y,z'

loop_
_atom_site_label
_atom_site_type_symbol
_atom_site_fract_x
_atom_site_fract_y
_atom_site_fract_z
_atom_site_charge
C1       C      0.009190000000     0.002310000000     0.086150000000     0.479285   
C2       C      0.975410000000     0.008870000000     0.914160000000     0.47773    
C3       C      0.904350000000     0.010720000000     0.017400000000     0.480159   
C4       C      0.077270000000     0.008060000000     0.984180000000     0.478729   
C5       C      0.996810000000     0.007870000000     0.592080000000     0.479806   
C6       C      0.991600000000     0.003350000000     0.416780000000     0.481976   
C7       C      0.908390000000     0.011630000000     0.505520000000     0.476542   
C8       C      0.084600000000     0.010040000000     0.500420000000     0.477681   
C9       C      0.955620000000     0.508320000000     0.091530000000     0.480045   
C10      C      0.996340000000     0.511440000000     0.920630000000     0.476545   
C11      C      0.894170000000     0.506470000000     0.986300000000     0.476091   
C12      C      0.065610000000     0.502880000000     0.027670000000     0.479522   
C13      C      0.996770000000     0.510980000000     0.592850000000     0.475198   
C14      C      0.012390000000     0.509370000000     0.417590000000     0.481386   
C15      C      0.916170000000     0.505720000000     0.499170000000     0.480433   
C16      C      0.091110000000     0.509900000000     0.514640000000     0.481481   
C17      C      0.474490000000     0.008970000000     0.109630000000     0.474006   
C18      C      0.506190000000     0.011180000000     0.936560000000     0.47085    
C19      C      0.403170000000     0.009090000000     0.004410000000     0.479852   
C20      C      0.576540000000     0.008560000000     0.035690000000     0.47758    
C21      C      0.518600000000     0.011280000000     0.609910000000     0.473021   
C22      C      0.469790000000     0.005160000000     0.441140000000     0.473709   
C23      C      0.413510000000     0.010160000000     0.551140000000     0.476903   
C24      C      0.582840000000     0.012190000000     0.502170000000     0.481509   
C25      C      0.457000000000     0.512350000000     0.101490000000     0.477384   
C26      C      0.504270000000     0.507860000000     0.932470000000     0.477688   
C27      C      0.397160000000     0.507770000000     0.992940000000     0.477159   
C28      C      0.567330000000     0.509870000000     0.039710000000     0.477777   
C29      C      0.508060000000     0.508640000000     0.605090000000     0.474883   
C30      C      0.501950000000     0.506380000000     0.429710000000     0.476558   
C31      C      0.416100000000     0.509500000000     0.521140000000     0.485842   
C32      C      0.591820000000     0.508120000000     0.516950000000     0.481211   
C33      C      0.520990000000     0.461460000000     0.860560000000     0.0188028  
C34      C      0.510300000000     0.555420000000     0.678230000000     0.0142975  
C35      C      0.511290000000     0.461230000000     0.677780000000    -0.0395859  
C36      C      0.542020000000     0.554090000000     0.720630000000    -0.0977493  
C37      C      0.492650000000     0.463440000000     0.815760000000    -0.109457   
C38      C      0.541800000000     0.463250000000     0.721350000000    -0.075157   
C39      C      0.505820000000     0.509210000000     0.789080000000     0.0369023  
C40      C      0.530810000000     0.508920000000     0.748640000000     0.0176583  
C41      C      0.524080000000     0.553840000000     0.861230000000     0.017553   
C42      C      0.495370000000     0.555020000000     0.816710000000    -0.108367   
C43      C      0.462390000000     0.446000000000     0.689670000000     0.306175   
C44      C      0.436250000000     0.467720000000     0.173240000000     0.0180363  
C45      C      0.509820000000     0.550870000000     0.355590000000     0.0145743  
C46      C      0.487760000000     0.460760000000     0.357070000000    -0.0372185  
C47      C      0.472460000000     0.560890000000     0.319160000000    -0.0980156  
C48      C      0.468090000000     0.468300000000     0.215370000000    -0.104509   
C49      C      0.450330000000     0.471160000000     0.320610000000    -0.0758587  
C50      C      0.461420000000     0.514920000000     0.243550000000     0.027364   
C51      C      0.462680000000     0.515160000000     0.291010000000     0.0225144  
C52      C      0.433430000000     0.558780000000     0.171400000000     0.0179314  
C53      C      0.462740000000     0.562180000000     0.215540000000    -0.104229   
C54      C      0.530320000000     0.437720000000     0.335780000000     0.303769   
C55      C      0.548280000000     0.650970000000     0.512000000000     0.00058595 
C56      C      0.458140000000     0.862690000000     0.528960000000     0.00382768 
C57      C      0.537900000000     0.865770000000     0.499670000000    -0.0527693  
C58      C      0.463440000000     0.810240000000     0.546500000000    -0.0891799  
C59      C      0.545320000000     0.705670000000     0.501040000000    -0.0927097  
C60      C      0.547410000000     0.812490000000     0.513620000000    -0.0661226  
C61      C      0.505500000000     0.732680000000     0.524910000000     0.0185662  
C62      C      0.504060000000     0.782920000000     0.524820000000     0.0198771  
C63      C      0.475500000000     0.650050000000     0.551930000000    -0.000567039
C64      C      0.463610000000     0.703080000000     0.540830000000    -0.0917361  
C65      C      0.526770000000     0.870960000000     0.448740000000     0.299941   
C66      C      0.526390000000     0.151670000000     0.554460000000     0.000216685
C67      C      0.466090000000     0.364610000000     0.489920000000     0.00508222 
C68      C      0.545530000000     0.361760000000     0.519000000000    -0.0446095  
C69      C      0.455140000000     0.312690000000     0.506580000000    -0.0889412  
C70      C      0.537630000000     0.204290000000     0.541420000000    -0.091696   
C71      C      0.539210000000     0.311110000000     0.540840000000    -0.0681276  
C72      C      0.495590000000     0.233130000000     0.524470000000     0.020255   
C73      C      0.497750000000     0.283160000000     0.521160000000     0.0229526  
C74      C      0.451860000000     0.151530000000     0.517880000000     0.00380995 
C75      C      0.454970000000     0.205150000000     0.503030000000    -0.0934386  
C76      C      0.566650000000     0.359380000000     0.470810000000     0.298613   
C77      C      0.516670000000     0.867090000000     0.986860000000     0.000309821
C78      C      0.444950000000     0.654470000000     0.040620000000     0.00501436 
C79      C      0.525490000000     0.655090000000     0.013150000000    -0.044397   
C80      C      0.436370000000     0.706850000000     0.023700000000    -0.0921262  
C81      C      0.525020000000     0.812780000000     0.996180000000    -0.0927453  
C82      C      0.519850000000     0.705180000000     0.989870000000    -0.0700994  
C83      C      0.481650000000     0.785180000000     0.011720000000     0.0191512  
C84      C      0.480650000000     0.734900000000     0.011480000000     0.0153203  
C85      C      0.442820000000     0.868490000000     0.024720000000     1.97558e-05
C86      C      0.443360000000     0.813920000000     0.036040000000    -0.0925915  
C87      C      0.546440000000     0.658960000000     0.061390000000     0.298575   
C88      C      0.515640000000     0.366670000000     0.990380000000     0.00136521 
C89      C      0.449810000000     0.153120000000     0.049200000000     0.00426357 
C90      C      0.531880000000     0.156090000000     0.028700000000    -0.0446001  
C91      C      0.440850000000     0.205380000000     0.032200000000    -0.0888524  
C92      C      0.526020000000     0.314170000000     0.005010000000    -0.0927388  
C93      C      0.528030000000     0.207030000000     0.006690000000    -0.0680018  
C94      C      0.482760000000     0.285040000000     0.018150000000     0.02031    
C95      C      0.484720000000     0.234970000000     0.021900000000     0.021508   
C96      C      0.438150000000     0.366440000000     0.020320000000     0.00165243 
C97      C      0.440300000000     0.312930000000     0.035720000000    -0.0927644  
C98      C      0.547680000000     0.157950000000     0.078900000000     0.297848   
C99      C      0.524020000000     0.966330000000     0.864270000000     0.0167863  
C100     C      0.526760000000     0.059700000000     0.681290000000     0.0150248  
C101     C      0.529620000000     0.965180000000     0.682320000000    -0.0393645  
C102     C      0.556360000000     0.059520000000     0.725240000000    -0.0986506  
C103     C      0.501090000000     0.968600000000     0.816590000000    -0.106589   
C104     C      0.558380000000     0.969000000000     0.726970000000    -0.0753025  
C105     C      0.516930000000     0.014510000000     0.791840000000     0.0343476  
C106     C      0.544670000000     0.014520000000     0.753170000000     0.0177622  
C107     C      0.525360000000     0.059050000000     0.866340000000     0.0157992  
C108     C      0.502980000000     0.060070000000     0.818260000000    -0.107237   
C109     C      0.481230000000     0.947130000000     0.692680000000     0.307173   
C110     C      0.445810000000     0.049960000000     0.370540000000     0.0175202  
C111     C      0.471260000000     0.959900000000     0.181170000000     0.0145528  
C112     C      0.460840000000     0.053050000000     0.183240000000    -0.0370598  
C113     C      0.437070000000     0.954950000000     0.221420000000    -0.09883    
C114     C      0.466980000000     0.045870000000     0.322290000000    -0.105502   
C115     C      0.426660000000     0.045960000000     0.223470000000    -0.0776374  
C116     C      0.449470000000     0.000490000000     0.297370000000     0.027021   
C117     C      0.438370000000     0.000530000000     0.251110000000     0.0203691  
C118     C      0.436550000000     0.959090000000     0.375110000000     0.0136998  
C119     C      0.454000000000     0.953420000000     0.325200000000    -0.10198    
C120     C      0.506700000000     0.072220000000     0.200700000000     0.305629   
C121     C      0.665490000000     0.553720000000     0.511860000000     0.0168157  
C122     C      0.843570000000     0.458300000000     0.501560000000     0.0152798  
C123     C      0.843450000000     0.552860000000     0.497260000000    -0.0383637  
C124     C      0.796650000000     0.458790000000     0.476930000000    -0.0990471  
C125     C      0.711680000000     0.551870000000     0.537760000000    -0.10844    
C126     C      0.795940000000     0.549370000000     0.473520000000    -0.0765756  
C127     C      0.736710000000     0.505760000000     0.523670000000     0.03744    
C128     C      0.771010000000     0.504530000000     0.490860000000     0.0186292  
C129     C      0.664110000000     0.459930000000     0.513640000000     0.017143   
C130     C      0.710360000000     0.461190000000     0.539500000000    -0.108666   
C131     C      0.838470000000     0.571710000000     0.546120000000     0.305138   
C132     C      0.343470000000     0.557480000000     0.523900000000     0.0167538  
C133     C      0.164400000000     0.464400000000     0.522840000000     0.0139112  
C134     C      0.162910000000     0.558800000000     0.517610000000    -0.0379954  
C135     C      0.207170000000     0.468840000000     0.553680000000    -0.0979075  
C136     C      0.299610000000     0.554690000000     0.494250000000    -0.108416   
C137     C      0.207350000000     0.559230000000     0.546990000000    -0.0762655  
C138     C      0.272130000000     0.510440000000     0.509420000000     0.038431   
C139     C      0.234360000000     0.512940000000     0.538100000000     0.0180797  
C140     C      0.342330000000     0.464440000000     0.530330000000     0.017269   
C141     C      0.298720000000     0.463840000000     0.500260000000    -0.108838   
C142     C      0.173460000000     0.571800000000     0.467960000000     0.305469   
C143     C      0.639380000000     0.464870000000     0.059590000000     0.017526   
C144     C      0.822520000000     0.553080000000     0.968660000000     0.0175717  
C145     C      0.821600000000     0.461680000000     0.967800000000    -0.0344758  
C146     C      0.780740000000     0.555690000000     0.001180000000    -0.0976536  
C147     C      0.680100000000     0.461430000000     0.025840000000    -0.102065   
C148     C      0.779150000000     0.460070000000     0.000120000000    -0.0739969  
C149     C      0.707750000000     0.508950000000     0.020960000000     0.0216599  
C150     C      0.752730000000     0.508340000000     0.004610000000     0.023636   
C151     C      0.639670000000     0.555230000000     0.058270000000     0.0162839  
C152     C      0.681020000000     0.557130000000     0.025090000000    -0.101621   
C153     C      0.808150000000     0.457050000000     0.917380000000     0.299433   
C154     C      0.137310000000     0.456490000000     0.046060000000     0.017226   
C155     C      0.325080000000     0.552440000000     0.972830000000     0.0168156  
C156     C      0.326950000000     0.461050000000     0.970100000000    -0.0354603  
C157     C      0.281280000000     0.552890000000     0.002660000000    -0.097097   
C158     C      0.180750000000     0.455830000000     0.015570000000    -0.102175   
C159     C      0.282070000000     0.457460000000     0.998870000000    -0.0730266  
C160     C      0.208020000000     0.503880000000     0.015350000000     0.0218286  
C161     C      0.254160000000     0.504870000000     0.002540000000     0.0226195  
C162     C      0.137290000000     0.546880000000     0.050620000000     0.0175335  
C163     C      0.180190000000     0.551280000000     0.019790000000    -0.102436   
C164     C      0.317720000000     0.456760000000     0.918730000000     0.298904   
C165     C      0.998000000000     0.558970000000     0.665180000000     0.0177427  
C166     C      0.001170000000     0.466000000000     0.847220000000     0.0142172  
C167     C      0.001390000000     0.560440000000     0.849230000000    -0.0382814  
C168     C      0.028580000000     0.468730000000     0.802040000000    -0.0975041  
C169     C      0.971210000000     0.558260000000     0.710930000000    -0.109199   
C170     C      0.026820000000     0.559410000000     0.802370000000    -0.0754708  
C171     C      0.985050000000     0.513240000000     0.737910000000     0.0390257  
C172     C      0.013720000000     0.513810000000     0.775880000000     0.0181251  
C173     C      0.998390000000     0.465370000000     0.666540000000     0.0179307  
C174     C      0.971360000000     0.467410000000     0.712090000000    -0.109679   
C175     C      0.951860000000     0.577190000000     0.843240000000     0.305511   
C176     C      0.932850000000     0.462320000000     0.162070000000     0.0222851  
C177     C      0.022150000000     0.554030000000     0.343670000000     0.0166605  
C178     C      0.022920000000     0.462450000000     0.344860000000    -0.0340163  
C179     C      0.986720000000     0.555430000000     0.304430000000    -0.0971763  
C180     C      0.964120000000     0.459810000000     0.204760000000    -0.104203   
C181     C      0.988490000000     0.460240000000     0.304140000000    -0.0742538  
C182     C      0.967650000000     0.507770000000     0.231900000000     0.024189   
C183     C      0.983720000000     0.507890000000     0.276860000000     0.0234103  
C184     C      0.931370000000     0.552560000000     0.162480000000     0.0191166  
C185     C      0.962550000000     0.555800000000     0.205150000000    -0.102497   
C186     C      0.072620000000     0.456490000000     0.329100000000     0.299809   
C187     C      0.023280000000     0.651500000000     0.543050000000     0.00120159 
C188     C      0.964170000000     0.863580000000     0.475450000000     0.00446175 
C189     C      0.038450000000     0.863010000000     0.516770000000    -0.0418637  
C190     C      0.952030000000     0.811680000000     0.491360000000    -0.0911786  
C191     C      0.033590000000     0.705500000000     0.534670000000    -0.0931437  
C192     C      0.028630000000     0.813070000000     0.538920000000    -0.0711444  
C193     C      0.993580000000     0.733150000000     0.512030000000     0.0209802  
C194     C      0.993250000000     0.783430000000     0.511340000000     0.0181129  
C195     C      0.956750000000     0.649660000000     0.493520000000    -0.00108539 
C196     C      0.959050000000     0.704360000000     0.482580000000    -0.0917328  
C197     C      0.067450000000     0.858830000000     0.472950000000     0.295622   
C198     C      0.971960000000     0.366690000000     0.475570000000     0.00102898 
C199     C      0.027740000000     0.151550000000     0.537800000000     0.00366212 
C200     C      0.997960000000     0.153890000000     0.458820000000    -0.0457543  
C201     C      0.013980000000     0.204600000000     0.547700000000    -0.0879213  
C202     C      0.984050000000     0.313720000000     0.464220000000    -0.0925726  
C203     C      0.979750000000     0.206430000000     0.463840000000    -0.0668064  
C204     C      0.999610000000     0.284330000000     0.506360000000     0.0192548  
C205     C      0.000780000000     0.234090000000     0.504760000000     0.0221857  
C206     C      0.009080000000     0.365970000000     0.549740000000     0.00214251 
C207     C      0.022290000000     0.311810000000     0.546550000000    -0.0922331  
C208     C      0.045910000000     0.152170000000     0.437150000000     0.295307   
C209     C      0.655060000000     0.965660000000     0.491370000000     0.0164026  
C210     C      0.835910000000     0.058950000000     0.499160000000     0.0154374  
C211     C      0.835320000000     0.964680000000     0.502420000000    -0.0387058  
C212     C      0.788490000000     0.058730000000     0.522830000000    -0.0988322  
C213     C      0.699820000000     0.968460000000     0.463050000000    -0.107359   
C214     C      0.786820000000     0.967860000000     0.524380000000    -0.0757813  
C215     C      0.726030000000     0.013700000000     0.477310000000     0.0362449  
C216     C      0.762410000000     0.013550000000     0.507960000000     0.0191021  
C217     C      0.654480000000     0.059990000000     0.492850000000     0.0168527  
C218     C      0.699090000000     0.058860000000     0.464200000000    -0.108498   
C219     C      0.832080000000     0.947320000000     0.452950000000     0.3049     
C220     C      0.343470000000     0.055610000000     0.576360000000     0.0191522  
C221     C      0.158060000000     0.963240000000     0.495890000000     0.0163953  
C222     C      0.158930000000     0.054760000000     0.490880000000    -0.0334581  
C223     C      0.197470000000     0.963020000000     0.531280000000    -0.0969332  
C224     C      0.299210000000     0.057950000000     0.547380000000    -0.102709   
C225     C      0.198730000000     0.057690000000     0.526300000000    -0.074274   
C226     C      0.271710000000     0.010140000000     0.545850000000     0.0230104  
C227     C      0.225950000000     0.010080000000     0.531810000000     0.0235206  
C228     C      0.343620000000     0.965340000000     0.578150000000     0.0192276  
C229     C      0.298500000000     0.962010000000     0.550370000000    -0.102432   
C230     C      0.176560000000     0.057680000000     0.441630000000     0.29793    
C231     C      0.938590000000     0.649870000000     0.002880000000    -0.00215311 
C232     C      0.031220000000     0.861330000000     0.002830000000     0.000123857
C233     C      0.948100000000     0.863920000000     0.019990000000    -0.0543394  
C234     C      0.029130000000     0.808240000000     0.986270000000    -0.0855681  
C235     C      0.939440000000     0.704230000000     0.015190000000    -0.0912391  
C236     C      0.940580000000     0.810980000000     0.004100000000    -0.064579   
C237     C      0.983590000000     0.731000000000     0.000430000000     0.0201105  
C238     C      0.985110000000     0.781220000000     0.000510000000     0.0191726  
C239     C      0.018830000000     0.648020000000     0.981420000000    -0.00174739 
C240     C      0.027940000000     0.701200000000     0.994430000000    -0.0903179  
C241     C      0.952780000000     0.868160000000     0.072080000000     0.301639   
C242     C      0.958120000000     0.148590000000     0.033220000000     0.00156486 
C243     C      0.012550000000     0.364660000000     0.973360000000     0.00218668 
C244     C      0.975170000000     0.362000000000     0.049110000000    -0.0498505  
C245     C      0.001270000000     0.311170000000     0.962770000000    -0.0867092  
C246     C      0.969130000000     0.201700000000     0.045050000000    -0.0924146  
C247     C      0.959900000000     0.308630000000     0.043180000000    -0.0654604  
C248     C      0.986030000000     0.231360000000     0.003540000000     0.0190903  
C249     C      0.985500000000     0.281580000000     0.004710000000     0.0213952  
C250     C      0.997950000000     0.150590000000     0.960400000000     0.000582005
C251     C      0.011810000000     0.204300000000     0.965080000000    -0.0911932  
C252     C      0.020040000000     0.366350000000     0.076310000000     0.298053   
C253     C      0.649830000000     0.962890000000     0.048030000000     0.0158815  
C254     C      0.831340000000     0.056970000000     0.026110000000     0.0149619  
C255     C      0.832970000000     0.962760000000     0.030430000000    -0.0416367  
C256     C      0.790520000000     0.056220000000     0.059910000000    -0.0984946  
C257     C      0.693940000000     0.962760000000     0.018490000000    -0.106463   
C258     C      0.790970000000     0.965610000000     0.063070000000    -0.074342   
C259     C      0.721150000000     0.009110000000     0.028120000000     0.0347359  
C260     C      0.762530000000     0.010360000000     0.051640000000     0.0185227  
C261     C      0.649450000000     0.055570000000     0.045070000000     0.0163303  
C262     C      0.693380000000     0.054120000000     0.015390000000    -0.107431   
C263     C      0.818680000000     0.944500000000     0.983260000000     0.306363   
C264     C      0.332170000000     0.962510000000     0.984860000000     0.017736   
C265     C      0.149990000000     0.054870000000     0.978780000000     0.0145697  
C266     C      0.149250000000     0.960300000000     0.975670000000    -0.0385732  
C267     C      0.194530000000     0.053670000000     0.950140000000    -0.0977957  
C268     C      0.284230000000     0.962540000000     0.007580000000    -0.108275   
C269     C      0.195200000000     0.963170000000     0.948760000000    -0.0749263  
C270     C      0.258530000000     0.008280000000     0.992960000000     0.0370719  
C271     C      0.221460000000     0.008450000000     0.963130000000     0.0166882  
C272     C      0.331610000000     0.055380000000     0.986230000000     0.0172819  
C273     C      0.283640000000     0.053920000000     0.008900000000    -0.10907    
C274     C      0.157290000000     0.941640000000     0.024170000000     0.305468   
C275     C      0.969430000000     0.963340000000     0.841090000000     0.0176217  
C276     C      0.989230000000     0.056490000000     0.663410000000     0.014615   
C277     C      0.991930000000     0.962030000000     0.665270000000    -0.0391712  
C278     C      0.010250000000     0.056660000000     0.711960000000    -0.0978174  
C279     C      0.943280000000     0.966860000000     0.795230000000    -0.108678   
C280     C      0.011660000000     0.965910000000     0.714500000000    -0.0746825  
C281     C      0.959650000000     0.012110000000     0.770440000000     0.0381901  
C282     C      0.993680000000     0.011760000000     0.737310000000     0.0169953  
C283     C      0.970920000000     0.057750000000     0.842880000000     0.0176047  
C284     C      0.945140000000     0.057240000000     0.796600000000    -0.109613   
C285     C      0.942320000000     0.944400000000     0.666280000000     0.307229   
C286     C      0.989910000000     0.046000000000     0.340990000000     0.0210413  
C287     C      0.036700000000     0.956850000000     0.154900000000     0.0129086  
C288     C      0.020010000000     0.047670000000     0.159210000000    -0.0354602  
C289     C      0.014890000000     0.949030000000     0.202720000000    -0.095682   
C290     C      0.029840000000     0.041670000000     0.306580000000    -0.108131   
C291     C      0.996320000000     0.040170000000     0.206180000000    -0.075103   
C292     C      0.023310000000     0.995520000000     0.278100000000     0.032864   
C293     C      0.014880000000     0.995550000000     0.231410000000     0.0241062  
C294     C      0.984190000000     0.954460000000     0.344790000000     0.019773   
C295     C      0.021990000000     0.949490000000     0.307650000000    -0.107783   
C296     C      0.068970000000     0.066800000000     0.163670000000     0.303246   
Cu1      Cu     0.991110000000     0.058950000000     0.001740000000     1.2147     
Cu2      Cu     0.990450000000     0.955420000000     0.999380000000     1.21064    
Cu3      Cu     0.996840000000     0.060240000000     0.503040000000     1.20211    
Cu4      Cu     0.996030000000     0.956770000000     0.505760000000     1.22965    
Cu5      Cu     0.980600000000     0.558690000000     0.008060000000     1.20407    
Cu6      Cu     0.979400000000     0.455340000000     0.006020000000     1.20132    
Cu7      Cu     0.003020000000     0.560760000000     0.504260000000     1.21544    
Cu8      Cu     0.004760000000     0.457160000000     0.505760000000     1.20668    
Cu9      Cu     0.489020000000     0.061360000000     0.023840000000     1.20567    
Cu10     Cu     0.489610000000     0.957650000000     0.022060000000     1.20476    
Cu11     Cu     0.497080000000     0.060920000000     0.523350000000     1.21109    
Cu12     Cu     0.498350000000     0.957440000000     0.525610000000     1.1958     
Cu13     Cu     0.481740000000     0.561260000000     0.016600000000     1.21451    
Cu14     Cu     0.482210000000     0.457800000000     0.018260000000     1.20299    
Cu15     Cu     0.504500000000     0.559990000000     0.516830000000     1.20628    
Cu16     Cu     0.502990000000     0.456410000000     0.517880000000     1.22606    
H1       H      0.496040000000     0.428680000000     0.796810000000     0.0550023  
H2       H      0.474230000000     0.562880000000     0.689770000000     0.043589   
H3       H      0.561430000000     0.556110000000     0.851900000000     0.0278519  
H4       H      0.501030000000     0.589970000000     0.798710000000     0.0478295  
H5       H      0.540110000000     0.589090000000     0.739340000000     0.043797   
H6       H      0.540200000000     0.428560000000     0.740740000000     0.0437066  
H7       H      0.509880000000     0.429030000000     0.880830000000     0.0375181  
H8       H      0.521080000000     0.586770000000     0.656290000000     0.0352156  
H9       H      0.457980000000     0.555020000000     0.826140000000     0.0616917  
H10      H      0.578620000000     0.465330000000     0.710030000000     0.045663   
H11      H      0.515640000000     0.586800000000     0.882020000000     0.0371618  
H12      H      0.455290000000     0.465710000000     0.825020000000     0.0701147  
H13      H      0.578560000000     0.551830000000     0.708510000000     0.0508887  
H14      H      0.526240000000     0.431810000000     0.655770000000     0.0625123  
H15      H      0.558150000000     0.456380000000     0.851480000000     0.0276216  
H16      H      0.418790000000     0.387850000000     0.692610000000     0.179851   
H17      H      0.462770000000     0.433830000000     0.234260000000     0.0536337  
H18      H      0.543650000000     0.546450000000     0.337720000000     0.0448195  
H19      H      0.396210000000     0.559300000000     0.181490000000     0.0266422  
H20      H      0.448150000000     0.593480000000     0.235030000000     0.0461064  
H21      H      0.485690000000     0.591800000000     0.298310000000     0.0465028  
H22      H      0.441770000000     0.437270000000     0.301840000000     0.0444     
H23      H      0.443320000000     0.434270000000     0.152630000000     0.0385151  
H24      H      0.513180000000     0.583800000000     0.377800000000     0.0395773  
H25      H      0.499290000000     0.570590000000     0.206300000000     0.05748    
H26      H      0.417770000000     0.480410000000     0.339260000000     0.0473722  
H27      H      0.439870000000     0.591710000000     0.149870000000     0.0392995  
H28      H      0.504650000000     0.467460000000     0.203210000000     0.0664921  
H29      H      0.440000000000     0.572880000000     0.336480000000     0.0523583  
H30      H      0.472400000000     0.433180000000     0.380860000000     0.062831   
H31      H      0.399710000000     0.465770000000     0.185420000000     0.0277337  
H32      H      0.570600000000     0.376880000000     0.336480000000     0.181335   
H33      H      0.579300000000     0.721300000000     0.511400000000     0.042928   
H34      H      0.442430000000     0.863460000000     0.493910000000     0.0409755  
H35      H      0.495000000000     0.647790000000     0.585110000000     0.0291604  
H36      H      0.448410000000     0.718840000000     0.572820000000     0.0424429  
H37      H      0.430010000000     0.791740000000     0.539020000000     0.0443898  
H38      H      0.567960000000     0.795810000000     0.485250000000     0.0437662  
H39      H      0.568650000000     0.633170000000     0.484120000000     0.0310879  
H40      H      0.433720000000     0.881360000000     0.552590000000     0.0320292  
H41      H      0.436930000000     0.703860000000     0.513080000000     0.0522205  
H42      H      0.569610000000     0.812420000000     0.545080000000     0.0434674  
H43      H      0.442720000000     0.629520000000     0.556570000000     0.0310639  
H44      H      0.541210000000     0.710260000000     0.463050000000     0.0543403  
H45      H      0.468510000000     0.810920000000     0.584620000000     0.0525748  
H46      H      0.571160000000     0.884910000000     0.505750000000     0.0539401  
H47      H      0.567040000000     0.645030000000     0.545190000000     0.0277597  
H48      H      0.541950000000     0.910050000000     0.390970000000     0.177503   
H49      H      0.552770000000     0.221400000000     0.572820000000     0.0422957  
H50      H      0.477490000000     0.364310000000     0.453210000000     0.044564   
H51      H      0.435170000000     0.148660000000     0.552500000000     0.0285303  
H52      H      0.421420000000     0.222280000000     0.512660000000     0.0429118  
H53      H      0.436370000000     0.294700000000     0.477720000000     0.0462306  
H54      H      0.572360000000     0.291110000000     0.536040000000     0.0443842  
H55      H      0.559370000000     0.131120000000     0.557890000000     0.0304232  
H56      H      0.433620000000     0.386130000000     0.490960000000     0.0296309  
H57      H      0.458620000000     0.206610000000     0.464770000000     0.0546556  
H58      H      0.533630000000     0.315570000000     0.578670000000     0.0465442  
H59      H      0.429670000000     0.131600000000     0.492800000000     0.0290079  
H60      H      0.564250000000     0.204130000000     0.513600000000     0.0557994  
H61      H      0.431310000000     0.314950000000     0.536710000000     0.0496519  
H62      H      0.570120000000     0.381750000000     0.541630000000     0.0475059  
H63      H      0.508540000000     0.150360000000     0.588610000000     0.0291184  
H64      H      0.604240000000     0.397470000000     0.423600000000     0.184284   
H65      H      0.538690000000     0.797300000000     0.963400000000     0.0431991  
H66      H      0.454560000000     0.654780000000     0.077780000000     0.0404911  
H67      H      0.425610000000     0.874630000000     0.990730000000     0.0289249  
H68      H      0.408630000000     0.799920000000     0.026100000000     0.0415107  
H69      H      0.416560000000     0.724910000000     0.051770000000     0.042317   
H70      H      0.553920000000     0.723860000000     0.991360000000     0.0501167  
H71      H      0.550680000000     0.885860000000     0.984390000000     0.0304094  
H72      H      0.412000000000     0.633750000000     0.037940000000     0.0278675  
H73      H      0.447740000000     0.809350000000     0.074010000000     0.0512845  
H74      H      0.511550000000     0.699620000000     0.952680000000     0.044637   
H75      H      0.422040000000     0.887490000000     0.051590000000     0.0293896  
H76      H      0.551970000000     0.809080000000     0.023460000000     0.0577587  
H77      H      0.414030000000     0.705610000000     0.992400000000     0.0476517  
H78      H      0.550010000000     0.633590000000     0.991640000000     0.0454252  
H79      H      0.498640000000     0.871970000000     0.953120000000     0.0281591  
H80      H      0.548740000000     0.627620000000     0.125090000000     0.176052   
H81      H      0.544290000000     0.296800000000     0.975450000000     0.0426617  
H82      H      0.457210000000     0.152810000000     0.086920000000     0.0437494  
H83      H      0.424360000000     0.369050000000     0.984420000000     0.0327943  
H84      H      0.407800000000     0.295550000000     0.023320000000     0.0429783  
H85      H      0.419590000000     0.223190000000     0.059400000000     0.0460986  
H86      H      0.560410000000     0.227090000000     0.015210000000     0.0446536  
H87      H      0.548610000000     0.387530000000     0.989650000000     0.0299336  
H88      H      0.417590000000     0.131700000000     0.044400000000     0.0286663  
H89      H      0.440570000000     0.311730000000     0.074160000000     0.0541134  
H90      H      0.526640000000     0.202880000000     0.968450000000     0.0431044  
H91      H      0.413770000000     0.386180000000     0.043430000000     0.0297088  
H92      H      0.549820000000     0.314900000000     0.035250000000     0.0559106  
H93      H      0.419880000000     0.203660000000     0.999980000000     0.0473568  
H94      H      0.558730000000     0.136150000000     0.008720000000     0.0468531  
H95      H      0.500900000000     0.367420000000     0.954780000000     0.0302768  
H96      H      0.579190000000     0.119020000000     0.129770000000     0.185466   
H97      H      0.506990000000     0.934020000000     0.797960000000     0.0528336  
H98      H      0.490320000000     0.068350000000     0.690780000000     0.0423264  
H99      H      0.563470000000     0.063540000000     0.862280000000     0.0282261  
H100     H      0.511360000000     0.095080000000     0.801450000000     0.0469958  
H101     H      0.552730000000     0.094650000000     0.743490000000     0.0435701  
H102     H      0.557370000000     0.934660000000     0.746990000000     0.0438053  
H103     H      0.510390000000     0.933800000000     0.882790000000     0.0345596  
H104     H      0.539190000000     0.089920000000     0.658770000000     0.0337067  
H105     H      0.464660000000     0.060130000000     0.822470000000     0.0574644  
H106     H      0.595500000000     0.972340000000     0.716970000000     0.0457822  
H107     H      0.512470000000     0.091020000000     0.886240000000     0.0371938  
H108     H      0.462890000000     0.970540000000     0.821450000000     0.0610447  
H109     H      0.593510000000     0.058030000000     0.714990000000     0.0498082  
H110     H      0.546770000000     0.936850000000     0.660610000000     0.0616477  
H111     H      0.561960000000     0.960960000000     0.859590000000     0.0283486  
H112     H      0.440930000000     0.886390000000     0.695540000000     0.176465   
H113     H      0.460830000000     0.080710000000     0.304210000000     0.0545713  
H114     H      0.507080000000     0.956410000000     0.194930000000     0.0470614  
H115     H      0.398000000000     0.960370000000     0.374380000000     0.0311376  
H116     H      0.432950000000     0.923330000000     0.310600000000     0.0480859  
H117     H      0.446430000000     0.920890000000     0.239640000000     0.0463343  
H118     H      0.422890000000     0.079940000000     0.243700000000     0.0471593  
H119     H      0.460900000000     0.082450000000     0.388000000000     0.0393333  
H120     H      0.465770000000     0.928210000000     0.157760000000     0.0392713  
H121     H      0.490960000000     0.942000000000     0.325440000000     0.0554108  
H122     H      0.391610000000     0.040380000000     0.208300000000     0.0483174  
H123     H      0.446500000000     0.926010000000     0.395020000000     0.0483205  
H124     H      0.505230000000     0.042640000000     0.325820000000     0.0655112  
H125     H      0.401440000000     0.949990000000     0.207530000000     0.0517062  
H126     H      0.445710000000     0.081910000000     0.160690000000     0.0617138  
H127     H      0.407880000000     0.056270000000     0.366950000000     0.0295507  
H128     H      0.542410000000     0.134410000000     0.214690000000     0.18133    
H129     H      0.731410000000     0.586050000000     0.532820000000     0.0540831  
H130     H      0.837900000000     0.450640000000     0.538900000000     0.0425946  
H131     H      0.670870000000     0.451450000000     0.476640000000     0.0376841  
H132     H      0.728860000000     0.426140000000     0.535650000000     0.0483409  
H133     H      0.777960000000     0.424240000000     0.483110000000     0.044478   
H134     H      0.776400000000     0.583960000000     0.476380000000     0.0447951  
H135     H      0.645510000000     0.585540000000     0.525010000000     0.0346157  
H136     H      0.864170000000     0.427390000000     0.487440000000     0.0338158  
H137     H      0.703190000000     0.464270000000     0.577190000000     0.05637    
H138     H      0.801810000000     0.545280000000     0.435680000000     0.045561   
H139     H      0.643230000000     0.429470000000     0.528140000000     0.0428204  
H140     H      0.704400000000     0.550580000000     0.575530000000     0.0588278  
H141     H      0.802870000000     0.459470000000     0.438960000000     0.0502848  
H142     H      0.863500000000     0.580740000000     0.477590000000     0.0570008  
H143     H      0.672450000000     0.560380000000     0.474550000000     0.0299774  
H144     H      0.836770000000     0.633460000000     0.584990000000     0.178778   
H145     H      0.280750000000     0.589730000000     0.495080000000     0.0537377  
H146     H      0.175490000000     0.453610000000     0.487450000000     0.0502137  
H147     H      0.331900000000     0.461770000000     0.567280000000     0.0320447  
H148     H      0.279060000000     0.429680000000     0.505370000000     0.0494165  
H149     H      0.226720000000     0.434190000000     0.554520000000     0.0446737  
H150     H      0.226840000000     0.593630000000     0.542450000000     0.0445959  
H151     H      0.365010000000     0.588290000000     0.511050000000     0.0365635  
H152     H      0.142650000000     0.434150000000     0.536560000000     0.0396355  
H153     H      0.309440000000     0.462990000000     0.463310000000     0.0584069  
H154     H      0.197040000000     0.559890000000     0.584070000000     0.0452922  
H155     H      0.363100000000     0.431400000000     0.522070000000     0.0362748  
H156     H      0.310030000000     0.549990000000     0.457480000000     0.060369   
H157     H      0.195500000000     0.474340000000     0.589970000000     0.0505403  
H158     H      0.140500000000     0.588410000000     0.531670000000     0.0602713  
H159     H      0.333400000000     0.566170000000     0.560110000000     0.0296768  
H160     H      0.177410000000     0.628310000000     0.422650000000     0.181263   
H161     H      0.702040000000     0.431290000000     0.039200000000     0.0451899  
H162     H      0.809810000000     0.555250000000     0.932420000000     0.0434894  
H163     H      0.653130000000     0.556120000000     0.094330000000     0.0309787  
H164     H      0.703440000000     0.586920000000     0.038360000000     0.0470486  
H165     H      0.759200000000     0.586150000000     0.987800000000     0.0470305  
H166     H      0.756510000000     0.430200000000     0.987280000000     0.048152   
H167     H      0.617640000000     0.431540000000     0.056220000000     0.0372684  
H168     H      0.844510000000     0.585850000000     0.974390000000     0.0362703  
H169     H      0.668410000000     0.567560000000     0.990130000000     0.0559315  
H170     H      0.791170000000     0.449600000000     0.035290000000     0.0454238  
H171     H      0.618280000000     0.588470000000     0.053220000000     0.04575    
H172     H      0.666780000000     0.450890000000     0.991180000000     0.0573221  
H173     H      0.793060000000     0.565520000000     0.036400000000     0.0510235  
H174     H      0.842650000000     0.428820000000     0.976280000000     0.0605171  
H175     H      0.653500000000     0.465390000000     0.095410000000     0.0290847  
H176     H      0.757550000000     0.470630000000     0.870190000000     0.179638   
H177     H      0.202000000000     0.425200000000     0.029020000000     0.0453795  
H178     H      0.314640000000     0.555170000000     0.935910000000     0.0401315  
H179     H      0.148960000000     0.545120000000     0.087270000000     0.0293902  
H180     H      0.201160000000     0.580920000000     0.035480000000     0.0442792  
H181     H      0.260050000000     0.583410000000     0.988930000000     0.0452573  
H182     H      0.261290000000     0.427430000000     0.983510000000     0.0474209  
H183     H      0.116120000000     0.423580000000     0.038330000000     0.0425622  
H184     H      0.345670000000     0.585720000000     0.980750000000     0.0353335  
H185     H      0.169250000000     0.563020000000     0.984650000000     0.0541275  
H186     H      0.291480000000     0.446200000000     0.034600000000     0.0444819  
H187     H      0.115960000000     0.580440000000     0.046790000000     0.0358251  
H188     H      0.170460000000     0.447210000000     0.979440000000     0.0568731  
H189     H      0.291080000000     0.561560000000     0.038930000000     0.0500321  
H190     H      0.348210000000     0.428740000000     0.979870000000     0.0562224  
H191     H      0.148400000000     0.453860000000     0.082840000000     0.032177   
H192     H      0.270970000000     0.470250000000     0.867720000000     0.177801   
H193     H      0.975670000000     0.593310000000     0.729180000000     0.0533084  
H194     H      0.964470000000     0.456900000000     0.839210000000     0.0497649  
H195     H      0.035540000000     0.458290000000     0.674350000000     0.0271038  
H196     H      0.975560000000     0.432960000000     0.731440000000     0.0492117  
H197     H      0.025700000000     0.434060000000     0.782810000000     0.0435403  
H198     H      0.022080000000     0.594210000000     0.783700000000     0.0431809  
H199     H      0.984560000000     0.589750000000     0.644000000000     0.0366005  
H200     H      0.015370000000     0.435250000000     0.867940000000     0.0351351  
H201     H      0.933720000000     0.469170000000     0.703890000000     0.0622026  
H202     H      0.064730000000     0.558120000000     0.809360000000     0.0445147  
H203     H      0.985350000000     0.433740000000     0.646230000000     0.0344798  
H204     H      0.933510000000     0.556280000000     0.703040000000     0.0647308  
H205     H      0.066070000000     0.471780000000     0.810630000000     0.0497752  
H206     H      0.019390000000     0.588470000000     0.870610000000     0.058154   
H207     H      0.035110000000     0.566720000000     0.672580000000     0.0276064  
H208     H      0.908400000000     0.634790000000     0.852040000000     0.179253   
H209     H      0.949330000000     0.430240000000     0.226480000000     0.0472673  
H210     H      0.057480000000     0.556030000000     0.328400000000     0.0445806  
H211     H      0.894650000000     0.551680000000     0.174280000000     0.0259947  
H212     H      0.946830000000     0.584630000000     0.227110000000     0.0453926  
H213     H      0.997430000000     0.586660000000     0.282470000000     0.0468609  
H214     H      0.999680000000     0.429300000000     0.281990000000     0.0494202  
H215     H      0.938430000000     0.429210000000     0.140630000000     0.0413567  
H216     H      0.017700000000     0.587340000000     0.365190000000     0.0407956  
H217     H      0.997610000000     0.568080000000     0.194210000000     0.0584843  
H218     H      0.953630000000     0.450930000000     0.318000000000     0.0442578  
H219     H      0.935860000000     0.586120000000     0.141320000000     0.0379187  
H220     H      0.999560000000     0.448890000000     0.193770000000     0.0712168  
H221     H      0.951920000000     0.563530000000     0.319050000000     0.050722   
H222     H      0.014820000000     0.430360000000     0.367080000000     0.0584709  
H223     H      0.896120000000     0.461720000000     0.173850000000     0.024822   
H224     H      0.117780000000     0.468890000000     0.276440000000     0.181664   
H225     H      0.041850000000     0.721300000000     0.569090000000     0.0445634  
H226     H      0.980680000000     0.862490000000     0.440770000000     0.0414818  
H227     H      0.934030000000     0.643090000000     0.524040000000     0.0392144  
H228     H      0.923340000000     0.718630000000     0.487460000000     0.0470079  
H229     H      0.937050000000     0.793270000000     0.460630000000     0.0461825  
H230     H      0.062340000000     0.794150000000     0.543180000000     0.0526141  
H231     H      0.056190000000     0.632560000000     0.551570000000     0.031252   
H232     H      0.931560000000     0.884650000000     0.471650000000     0.0407674  
H233     H      0.968830000000     0.708920000000     0.445630000000     0.0518944  
H234     H      0.014330000000     0.818920000000     0.574200000000     0.051015   
H235     H      0.940930000000     0.630770000000     0.463430000000     0.0320164  
H236     H      0.064660000000     0.708620000000     0.512110000000     0.06152    
H237     H      0.924710000000     0.813790000000     0.518390000000     0.0551052  
H238     H      0.058880000000     0.884570000000     0.542130000000     0.0446904  
H239     H      0.999680000000     0.647360000000     0.573270000000     0.0308179  
H240     H      0.116550000000     0.818280000000     0.440310000000     0.179732   
H241     H      0.952470000000     0.297490000000     0.448470000000     0.0424028  
H242     H      0.064370000000     0.149380000000     0.526120000000     0.0396345  
H243     H      0.974770000000     0.370230000000     0.566930000000     0.0270728  
H244     H      0.012500000000     0.295200000000     0.580210000000     0.0411638  
H245     H      0.043990000000     0.221210000000     0.565880000000     0.04349    
H246     H      0.986350000000     0.225380000000     0.430490000000     0.0462587  
H247     H      0.968630000000     0.387370000000     0.442750000000     0.0296253  
H248     H      0.025890000000     0.131110000000     0.570750000000     0.0273508  
H249     H      0.060540000000     0.309010000000     0.542550000000     0.052682   
H250     H      0.941570000000     0.205080000000     0.468970000000     0.0432024  
H251     H      0.035260000000     0.384810000000     0.571520000000     0.0291074  
H252     H      0.012370000000     0.313250000000     0.438140000000     0.0585848  
H253     H      0.983860000000     0.204710000000     0.571690000000     0.0462696  
H254     H      0.973630000000     0.134770000000     0.435160000000     0.0478842  
H255     H      0.937870000000     0.368500000000     0.493560000000     0.0290673  
H256     H      0.106970000000     0.188510000000     0.430370000000     0.185218   
H257     H      0.719590000000     0.934020000000     0.465530000000     0.0542566  
H258     H      0.831030000000     0.066220000000     0.461640000000     0.0439448  
H259     H      0.663370000000     0.069180000000     0.529260000000     0.0290274  
H260     H      0.718090000000     0.093650000000     0.467590000000     0.048502   
H261     H      0.770620000000     0.093710000000     0.516490000000     0.0444772  
H262     H      0.767440000000     0.933430000000     0.519540000000     0.0452014  
H263     H      0.633380000000     0.935900000000     0.476680000000     0.0428801  
H264     H      0.856170000000     0.090050000000     0.513440000000     0.0386984  
H265     H      0.689560000000     0.056870000000     0.426960000000     0.0582855  
H266     H      0.791260000000     0.970520000000     0.562530000000     0.0499544  
H267     H      0.632300000000     0.090110000000     0.479530000000     0.0380233  
H268     H      0.690440000000     0.971320000000     0.425830000000     0.0613693  
H269     H      0.793880000000     0.057470000000     0.560900000000     0.0534572  
H270     H      0.854440000000     0.936100000000     0.522120000000     0.0636333  
H271     H      0.663800000000     0.955100000000     0.527470000000     0.0296219  
H272     H      0.835450000000     0.887160000000     0.412000000000     0.178243   
H273     H      0.278310000000     0.087730000000     0.563000000000     0.044685   
H274     H      0.173140000000     0.958380000000     0.460800000000     0.0468192  
H275     H      0.334670000000     0.965920000000     0.615590000000     0.0303896  
H276     H      0.277340000000     0.933990000000     0.568370000000     0.0448089  
H277     H      0.218680000000     0.930630000000     0.522320000000     0.0471478  
H278     H      0.220870000000     0.088740000000     0.515350000000     0.0468712  
H279     H      0.364500000000     0.088870000000     0.569640000000     0.0345091  
H280     H      0.135810000000     0.930930000000     0.502590000000     0.0448779  
H281     H      0.306690000000     0.948550000000     0.515030000000     0.056186   
H282     H      0.183930000000     0.067200000000     0.560640000000     0.0441724  
H283     H      0.364500000000     0.931910000000     0.571860000000     0.0356232  
H284     H      0.308430000000     0.068430000000     0.511390000000     0.0588467  
H285     H      0.182720000000     0.957310000000     0.566370000000     0.050286   
H286     H      0.137130000000     0.087740000000     0.496750000000     0.0617723  
H287     H      0.333540000000     0.056210000000     0.613550000000     0.0286438  
H288     H      0.230460000000     0.041420000000     0.399050000000     0.179951   
H289     H      0.908460000000     0.720410000000     0.998300000000     0.0445327  
H290     H      0.041700000000     0.863460000000     0.039730000000     0.0485286  
H291     H      0.007960000000     0.645590000000     0.944540000000     0.0385756  
H292     H      0.049960000000     0.716560000000     0.966480000000     0.0430382  
H293     H      0.060510000000     0.790200000000     0.000510000000     0.0473935  
H294     H      0.915300000000     0.794350000000     0.028420000000     0.0461894  
H295     H      0.911880000000     0.631910000000     0.024660000000     0.0314328  
H296     H      0.058730000000     0.879620000000     0.982530000000     0.0385045  
H297     H      0.047760000000     0.702300000000     0.027400000000     0.0524894  
H298     H      0.924200000000     0.811430000000     0.969270000000     0.0476563  
H299     H      0.051570000000     0.627150000000     0.985130000000     0.0295019  
H300     H      0.935640000000     0.708110000000     0.053290000000     0.0545075  
H301     H      0.031450000000     0.807610000000     0.947890000000     0.0485046  
H302     H      0.916000000000     0.883400000000     0.009950000000     0.0624896  
H303     H      0.928460000000     0.644700000000     0.966020000000     0.0361279  
H304     H      0.932660000000     0.907900000000     0.127910000000     0.175901   
H305     H      0.936660000000     0.217190000000     0.059530000000     0.0425663  
H306     H      0.047850000000     0.368200000000     0.988310000000     0.0409445  
H307     H      0.964110000000     0.147370000000     0.942090000000     0.0281928  
H308     H      0.005040000000     0.221190000000     0.930820000000     0.0413066  
H309     H      0.033240000000     0.295510000000     0.947370000000     0.0437551  
H310     H      0.964440000000     0.290500000000     0.077260000000     0.0444924  
H311     H      0.954250000000     0.127640000000     0.065860000000     0.0310361  
H312     H      0.013050000000     0.384570000000     0.940070000000     0.0299516  
H313     H      0.049620000000     0.206460000000     0.972280000000     0.0527675  
H314     H      0.922280000000     0.307940000000     0.034760000000     0.0431605  
H315     H      0.024480000000     0.131650000000     0.939120000000     0.0292938  
H316     H      0.996350000000     0.202600000000     0.072270000000     0.058832   
H317     H      0.973280000000     0.309830000000     0.936360000000     0.0489243  
H318     H      0.947300000000     0.379780000000     0.069520000000     0.0492417  
H319     H      0.924580000000     0.146470000000     0.014250000000     0.0299647  
H320     H      0.083220000000     0.335640000000     0.087340000000     0.176897   
H321     H      0.712880000000     0.928230000000     0.023650000000     0.0532537  
H322     H      0.817920000000     0.063630000000     0.990620000000     0.0432087  
H323     H      0.659520000000     0.061710000000     0.081740000000     0.036783   
H324     H      0.711870000000     0.089230000000     0.018080000000     0.0479661  
H325     H      0.771050000000     0.090820000000     0.058010000000     0.0444185  
H326     H      0.771900000000     0.930670000000     0.063840000000     0.0458069  
H327     H      0.629010000000     0.930060000000     0.039090000000     0.0389428  
H328     H      0.853770000000     0.088580000000     0.035160000000     0.0345958  
H329     H      0.682990000000     0.051370000000     0.978440000000     0.0573173  
H330     H      0.804200000000     0.969470000000     0.099040000000     0.0489557  
H331     H      0.628480000000     0.087390000000     0.033770000000     0.0451914  
H332     H      0.683690000000     0.962490000000     0.981410000000     0.0604523  
H333     H      0.804580000000     0.055460000000     0.095740000000     0.0514488  
H334     H      0.856410000000     0.934780000000     0.045550000000     0.0706742  
H335     H      0.659930000000     0.959590000000     0.085020000000     0.0330869  
H336     H      0.812990000000     0.883600000000     0.943560000000     0.178711   
H337     H      0.266440000000     0.927710000000     0.000430000000     0.0523318  
H338     H      0.158930000000     0.063080000000     0.015380000000     0.046733   
H339     H      0.327140000000     0.061010000000     0.948400000000     0.0280253  
H340     H      0.265400000000     0.088690000000     0.002740000000     0.0480694  
H341     H      0.213550000000     0.088460000000     0.953410000000     0.0435928  
H342     H      0.214670000000     0.928520000000     0.951000000000     0.0429969  
H343     H      0.351600000000     0.930200000000     0.997680000000     0.0332895  
H344     H      0.128360000000     0.085690000000     0.966030000000     0.0377785  
H345     H      0.288280000000     0.052040000000     0.047050000000     0.0587722  
H346     H      0.186790000000     0.966240000000     0.911310000000     0.0442548  
H347     H      0.350670000000     0.087520000000     0.999980000000     0.0347452  
H348     H      0.288870000000     0.963260000000     0.045770000000     0.0613748  
H349     H      0.184930000000     0.051730000000     0.912920000000     0.0490532  
H350     H      0.127590000000     0.932640000000     0.957490000000     0.0578565  
H351     H      0.327760000000     0.958060000000     0.946870000000     0.0277224  
H352     H      0.156570000000     0.880660000000     0.064150000000     0.179808   
H353     H      0.946320000000     0.932650000000     0.775170000000     0.0550296  
H354     H      0.951550000000     0.064620000000     0.666050000000     0.0428132  
H355     H      0.007900000000     0.067080000000     0.836500000000     0.0274693  
H356     H      0.950160000000     0.092070000000     0.778050000000     0.0472807  
H357     H      0.002970000000     0.091760000000     0.729220000000     0.0426577  
H358     H      0.006130000000     0.931780000000     0.734180000000     0.0437829  
H359     H      0.953890000000     0.933100000000     0.861580000000     0.0396883  
H360     H      0.005220000000     0.086910000000     0.643580000000     0.0332339  
H361     H      0.907250000000     0.055590000000     0.803630000000     0.0577267  
H362     H      0.050040000000     0.968770000000     0.711840000000     0.044469   
H363     H      0.956130000000     0.087560000000     0.864450000000     0.0342967  
H364     H      0.905590000000     0.970180000000     0.802770000000     0.061372   
H365     H      0.048660000000     0.055240000000     0.708750000000     0.0484873  
H366     H      0.012730000000     0.933400000000     0.647400000000     0.0612219  
H367     H      0.006070000000     0.953150000000     0.833980000000     0.0298839  
H368     H      0.901730000000     0.884070000000     0.660930000000     0.179377   
H369     H      0.034190000000     0.075780000000     0.286700000000     0.0613866  
H370     H      0.074910000000     0.959830000000     0.159210000000     0.0485562  
H371     H      0.949830000000     0.953330000000     0.327340000000     0.0306768  
H372     H      0.014310000000     0.915580000000     0.288380000000     0.0496593  
H373     H      0.035680000000     0.919600000000     0.218880000000     0.0497955  
H374     H      0.997440000000     0.074860000000     0.225540000000     0.0446696  
H375     H      0.994200000000     0.079820000000     0.361640000000     0.0493293  
H376     H      0.030270000000     0.923680000000     0.133710000000     0.0498975  
H377     H      0.056210000000     0.944610000000     0.324720000000     0.0671096  
H378     H      0.958820000000     0.033560000000     0.199790000000     0.0469556  
H379     H      0.986000000000     0.922330000000     0.368180000000     0.0446853  
H380     H      0.062680000000     0.038050000000     0.326460000000     0.0790205  
H381     H      0.978630000000     0.935990000000     0.198760000000     0.050043   
H382     H      0.999540000000     0.076610000000     0.141470000000     0.0597     
H383     H      0.956860000000     0.049380000000     0.321410000000     0.0291164  
H384     H      0.116560000000     0.111010000000     0.133200000000     0.182212   
N1       N      0.511180000000     0.508560000000     0.652370000000    -0.174066   
N2       N      0.515780000000     0.507670000000     0.886560000000    -0.187923   
N3       N      0.499860000000     0.506050000000     0.382390000000    -0.175013   
N4       N      0.442980000000     0.512940000000     0.146650000000    -0.18826    
N5       N      0.502620000000     0.888410000000     0.529550000000    -0.221757   
N6       N      0.502240000000     0.628800000000     0.513960000000    -0.23425    
N7       N      0.500990000000     0.387610000000     0.519620000000    -0.227008   
N8       N      0.497900000000     0.129320000000     0.518510000000    -0.235731   
N9       N      0.480490000000     0.629990000000     0.012770000000    -0.225714   
N10      N      0.489730000000     0.888710000000     0.024420000000    -0.233506   
N11      N      0.487620000000     0.130340000000     0.023140000000    -0.226193   
N12      N      0.483860000000     0.389230000000     0.023380000000    -0.234087   
N13      N      0.527630000000     0.012180000000     0.656450000000    -0.174171   
N14      N      0.516210000000     0.012190000000     0.890250000000    -0.187589   
N15      N      0.467170000000     0.007230000000     0.156480000000    -0.173415   
N16      N      0.453530000000     0.004460000000     0.396610000000    -0.186074   
N17      N      0.868770000000     0.505410000000     0.496980000000    -0.175847   
N18      N      0.639250000000     0.507320000000     0.516560000000    -0.187362   
N19      N      0.138210000000     0.511050000000     0.520060000000    -0.1741     
N20      N      0.368780000000     0.510320000000     0.523470000000    -0.189808   
N21      N      0.847990000000     0.507080000000     0.975150000000    -0.174112   
N22      N      0.613290000000     0.510020000000     0.051510000000    -0.187103   
N23      N      0.351460000000     0.507120000000     0.979920000000    -0.176145   
N24      N      0.111540000000     0.502160000000     0.039620000000    -0.186732   
N25      N      0.002480000000     0.512530000000     0.873600000000    -0.174025   
N26      N      0.994740000000     0.511730000000     0.640210000000    -0.187173   
N27      N      0.017780000000     0.508650000000     0.370510000000    -0.175696   
N28      N      0.941330000000     0.507730000000     0.136650000000    -0.187425   
N29      N      0.994140000000     0.888130000000     0.509120000000    -0.22608    
N30      N      0.003000000000     0.629620000000     0.501640000000    -0.232956   
N31      N      0.996420000000     0.129290000000     0.503900000000    -0.225267   
N32      N      0.008490000000     0.388430000000     0.503910000000    -0.232781   
N33      N      0.860870000000     0.011880000000     0.504820000000    -0.173087   
N34      N      0.629290000000     0.012630000000     0.492300000000    -0.187698   
N35      N      0.132050000000     0.009470000000     0.497320000000    -0.173997   
N36      N      0.368690000000     0.010280000000     0.566680000000    -0.187005   
N37      N      0.987080000000     0.886470000000     0.995090000000    -0.223718   
N38      N      0.983530000000     0.627230000000     0.011890000000    -0.233091   
N39      N      0.977610000000     0.386360000000     0.003870000000    -0.223745   
N40      N      0.995580000000     0.127350000000     0.005810000000    -0.23343    
N41      N      0.857690000000     0.010350000000     0.026400000000    -0.173814   
N42      N      0.623650000000     0.008930000000     0.041660000000    -0.185463   
N43      N      0.124230000000     0.007890000000     0.977050000000    -0.174544   
N44      N      0.356890000000     0.008980000000     0.993880000000    -0.189975   
N45      N      0.995300000000     0.008930000000     0.639410000000    -0.175843   
N46      N      0.968820000000     0.010020000000     0.867310000000    -0.188145   
N47      N      0.019760000000     0.001790000000     0.132310000000    -0.174137   
N48      N      0.988510000000     0.001450000000     0.369610000000    -0.184675   
O1       O      0.001540000000     0.042840000000     0.066040000000    -0.479341   
O2       O      0.979250000000     0.048600000000     0.936600000000    -0.488009   
O3       O      0.925500000000     0.050880000000     0.011610000000    -0.488125   
O4       O      0.056000000000     0.048250000000     0.989660000000    -0.481725   
O5       O      0.055310000000     0.967900000000     0.986630000000    -0.479873   
O6       O      0.926370000000     0.970660000000     0.014380000000    -0.478066   
O7       O      0.979020000000     0.968100000000     0.934860000000    -0.484494   
O8       O      0.007640000000     0.962620000000     0.063410000000    -0.472485   
O9       O      0.996110000000     0.047490000000     0.569180000000    -0.488062   
O10      O      0.993430000000     0.044440000000     0.437360000000    -0.466324   
O11      O      0.930640000000     0.051620000000     0.503130000000    -0.479198   
O12      O      0.062950000000     0.050440000000     0.500150000000    -0.475816   
O13      O      0.062270000000     0.970050000000     0.502950000000    -0.475207   
O14      O      0.930140000000     0.971230000000     0.507470000000    -0.478444   
O15      O      0.992490000000     0.963950000000     0.439880000000    -0.47781    
O16      O      0.997560000000     0.967210000000     0.571130000000    -0.487662   
O17      O      0.961760000000     0.548760000000     0.071050000000    -0.484373   
O18      O      0.993310000000     0.551150000000     0.943110000000    -0.483385   
O19      O      0.916040000000     0.546460000000     0.991720000000    -0.475681   
O20      O      0.044440000000     0.543410000000     0.023970000000    -0.486984   
O21      O      0.044100000000     0.463100000000     0.020800000000    -0.481105   
O22      O      0.915100000000     0.465930000000     0.991180000000    -0.473481   
O23      O      0.991810000000     0.470750000000     0.941430000000    -0.479724   
O24      O      0.962100000000     0.468410000000     0.070000000000    -0.472741   
O25      O      0.998050000000     0.550910000000     0.570380000000    -0.484772   
O26      O      0.008940000000     0.549820000000     0.438750000000    -0.483548   
O27      O      0.937640000000     0.546240000000     0.499820000000    -0.489802   
O28      O      0.068740000000     0.549590000000     0.510210000000    -0.483889   
O29      O      0.069950000000     0.469220000000     0.513790000000    -0.481273   
O30      O      0.938470000000     0.465780000000     0.501540000000    -0.488944   
O31      O      0.011340000000     0.469540000000     0.440100000000    -0.481508   
O32      O      0.998620000000     0.470330000000     0.571520000000    -0.481553   
O33      O      0.477470000000     0.049890000000     0.088970000000    -0.474412   
O34      O      0.501750000000     0.051030000000     0.958830000000    -0.478073   
O35      O      0.424470000000     0.049250000000     0.009730000000    -0.488564   
O36      O      0.554440000000     0.048630000000     0.033220000000    -0.470561   
O37      O      0.555010000000     0.968240000000     0.032310000000    -0.480662   
O38      O      0.424880000000     0.969030000000     0.008320000000    -0.490889   
O39      O      0.502020000000     0.970390000000     0.957300000000    -0.481959   
O40      O      0.478860000000     0.969440000000     0.086990000000    -0.484967   
O41      O      0.512700000000     0.051050000000     0.587920000000    -0.482051   
O42      O      0.478310000000     0.045820000000     0.460650000000    -0.484253   
O43      O      0.433960000000     0.050410000000     0.543230000000    -0.484732   
O44      O      0.561320000000     0.052010000000     0.508020000000    -0.49022    
O45      O      0.561640000000     0.971910000000     0.507060000000    -0.480491   
O46      O      0.434820000000     0.969890000000     0.545340000000    -0.474526   
O47      O      0.475470000000     0.965380000000     0.463170000000    -0.47238    
O48      O      0.514470000000     0.970530000000     0.589180000000    -0.475113   
O49      O      0.463630000000     0.552280000000     0.080150000000    -0.478269   
O50      O      0.498910000000     0.548310000000     0.953380000000    -0.486461   
O51      O      0.417890000000     0.548250000000     0.999150000000    -0.482372   
O52      O      0.545950000000     0.549930000000     0.033730000000    -0.47386    
O53      O      0.546120000000     0.469600000000     0.034710000000    -0.485643   
O54      O      0.418820000000     0.467840000000     0.998720000000    -0.481325   
O55      O      0.498700000000     0.467730000000     0.953980000000    -0.481307   
O56      O      0.463150000000     0.471800000000     0.080980000000    -0.485121   
O57      O      0.506640000000     0.548920000000     0.583080000000    -0.483515   
O58      O      0.506090000000     0.546670000000     0.451210000000    -0.483127   
O59      O      0.438520000000     0.549090000000     0.517210000000    -0.492874   
O60      O      0.570490000000     0.548650000000     0.517420000000    -0.487667   
O61      O      0.569190000000     0.468320000000     0.516430000000    -0.475681   
O62      O      0.437560000000     0.469170000000     0.523260000000    -0.491372   
O63      O      0.499160000000     0.466480000000     0.452010000000    -0.481164   
O64      O      0.506730000000     0.468280000000     0.583360000000    -0.480755   
O65      O      0.449730000000     0.398800000000     0.684870000000    -0.346049   
O66      O      0.434630000000     0.475780000000     0.704670000000    -0.247542   
O67      O      0.543580000000     0.392700000000     0.349480000000    -0.337055   
O68      O      0.552570000000     0.459200000000     0.306110000000    -0.250468   
O69      O      0.548120000000     0.905940000000     0.423630000000    -0.338229   
O70      O      0.499070000000     0.843500000000     0.430070000000    -0.253802   
O71      O      0.590280000000     0.397990000000     0.454020000000    -0.334608   
O72      O      0.561570000000     0.323100000000     0.446630000000    -0.245064   
O73      O      0.535040000000     0.626370000000     0.094560000000    -0.336333   
O74      O      0.575720000000     0.690050000000     0.069670000000    -0.256789   
O75      O      0.568670000000     0.118840000000     0.098010000000    -0.33424    
O76      O      0.540580000000     0.194240000000     0.102540000000    -0.245731   
O77      O      0.471530000000     0.899060000000     0.688850000000    -0.347117   
O78      O      0.451170000000     0.975560000000     0.705460000000    -0.25022    
O79      O      0.513690000000     0.120910000000     0.203040000000    -0.340898   
O80      O      0.536760000000     0.044220000000     0.214280000000    -0.247939   
O81      O      0.840270000000     0.620250000000     0.554140000000    -0.350703   
O82      O      0.831470000000     0.543500000000     0.578130000000    -0.247845   
O83      O      0.170420000000     0.618780000000     0.454110000000    -0.344879   
O84      O      0.185910000000     0.540370000000     0.440620000000    -0.240514   
O85      O      0.766320000000     0.472720000000     0.902430000000    -0.342499   
O86      O      0.836090000000     0.440540000000     0.889710000000    -0.239908   
O87      O      0.277090000000     0.472130000000     0.900580000000    -0.34376    
O88      O      0.347980000000     0.440820000000     0.893290000000    -0.247999   
O89      O      0.939860000000     0.623070000000     0.855450000000    -0.346771   
O90      O      0.922760000000     0.549620000000     0.827010000000    -0.241105   
O91      O      0.085980000000     0.471850000000     0.286720000000    -0.340307   
O92      O      0.101230000000     0.439170000000     0.355610000000    -0.236863   
O93      O      0.097230000000     0.821180000000     0.467520000000    -0.347531   
O94      O      0.065700000000     0.890690000000     0.443410000000    -0.243933   
O95      O      0.076080000000     0.189360000000     0.443400000000    -0.342009   
O96      O      0.057810000000     0.116490000000     0.414800000000    -0.229443   
O97      O      0.837660000000     0.899430000000     0.443310000000    -0.349469   
O98      O      0.823190000000     0.976050000000     0.421830000000    -0.248084   
O99      O      0.219010000000     0.040410000000     0.430490000000    -0.341906   
O100     O      0.151510000000     0.074260000000     0.411400000000    -0.230308   
O101     O      0.930420000000     0.904280000000     0.094700000000    -0.338922   
O102     O      0.976450000000     0.839070000000     0.093810000000    -0.253442   
O103     O      0.054290000000     0.333230000000     0.070560000000    -0.34388    
O104     O      0.025470000000     0.400120000000     0.103380000000    -0.246739   
O105     O      0.822220000000     0.896460000000     0.973340000000    -0.349637   
O106     O      0.802800000000     0.972640000000     0.954510000000    -0.249072   
O107     O      0.151490000000     0.893700000000     0.033460000000    -0.349761   
O108     O      0.169950000000     0.969450000000     0.054750000000    -0.243821   
O109     O      0.933120000000     0.896490000000     0.660120000000    -0.346213   
O110     O      0.910630000000     0.972980000000     0.673700000000    -0.24879    
O111     O      0.085150000000     0.098650000000     0.131880000000    -0.335291   
O112     O      0.094510000000     0.052410000000     0.194550000000    -0.244074   


