data_structure

_audit_creation_method RASPA-1.0
_audit_creation_date 2023-5-22
_audit_author_name 'Poobodin Mano'

_cell_length_a    46.8997
_cell_length_b    46.7865
_cell_length_c    34.7621
_cell_angle_alpha 90.0005
_cell_angle_beta  89.9995
_cell_angle_gamma 89.9957
_cell_volume      76277.5

_symmetry_cell_setting          triclinic
_symmetry_space_group_name_Hall 'P 1'
_symmetry_space_group_name_H-M  'P 1'
_symmetry_Int_Tables_number     1

_symmetry_equiv_pos_as_xyz 'x,y,z'

loop_
_atom_site_label
_atom_site_type_symbol
_atom_site_fract_x
_atom_site_fract_y
_atom_site_fract_z
_atom_site_charge
C1       C      0.447100000000     0.266300000000     0.024400000000     0.402132   
C2       C      0.523340000000     0.284970000000     0.134710000000     0.40166    
C3       C      0.442170000000     0.281060000000     0.130330000000     0.400483   
C4       C      0.526900000000     0.270410000000     0.029480000000     0.399781   
C5       C      0.167800000000     0.605990000000     0.013080000000     0.401035   
C6       C      0.195520000000     0.531270000000     0.122510000000     0.399968   
C7       C      0.179950000000     0.610660000000     0.120540000000     0.400372   
C8       C      0.183040000000     0.527890000000     0.015450000000     0.40135    
C9       C      0.441880000000     0.794520000000     0.139970000000     0.40147    
C10      C      0.378840000000     0.776470000000     0.015150000000     0.40308    
C11      C      0.457320000000     0.777360000000     0.035570000000     0.400036   
C12      C      0.363150000000     0.793640000000     0.118700000000     0.40004    
C13      C      0.719910000000     0.487280000000     0.130920000000     0.400369   
C14      C      0.700400000000     0.562860000000     0.019370000000     0.400584   
C15      C      0.718110000000     0.483590000000     0.022630000000     0.40125    
C16      C      0.702780000000     0.566000000000     0.126130000000     0.401058   
C17      C      0.241210000000     0.035370000000     0.519160000000     0.401751   
C18      C      0.261950000000     0.100210000000     0.641820000000     0.401677   
C19      C      0.246600000000     0.023360000000     0.626170000000     0.400925   
C20      C      0.256790000000     0.114210000000     0.535050000000     0.401009   
C21      C      0.875530000000     0.763940000000     0.525200000000     0.400996   
C22      C      0.956340000000     0.766920000000     0.632630000000     0.402267   
C23      C      0.875420000000     0.764570000000     0.632150000000     0.400963   
C24      C      0.956040000000     0.766090000000     0.524210000000     0.399984   
C25      C      0.662800000000     0.988600000000     0.608710000000     0.399942   
C26      C      0.667880000000     0.074880000000     0.508980000000     0.399588   
C27      C      0.648770000000     0.996550000000     0.501820000000     0.400404   
C28      C      0.681740000000     0.067110000000     0.613120000000     0.401431   
C29      C      0.942240000000     0.346630000000     0.536070000000     0.401798   
C30      C      0.033120000000     0.353020000000     0.627090000000     0.402019   
C31      C      0.954230000000     0.339940000000     0.642910000000     0.400409   
C32      C      0.020170000000     0.359550000000     0.520910000000     0.40123    
C33      C      0.228900000000     0.381140000000     0.303070000000     0.399894   
C34      C      0.245610000000     0.282920000000     0.376810000000     0.399727   
C35      C      0.285580000000     0.324220000000     0.299670000000     0.400451   
C36      C      0.189930000000     0.340140000000     0.379200000000     0.399494   
C37      C      0.673150000000     0.296580000000     0.320750000000     0.401755   
C38      C      0.764700000000     0.306540000000     0.410250000000     0.402345   
C39      C      0.730440000000     0.351950000000     0.333060000000     0.399784   
C40      C      0.707810000000     0.250740000000     0.396560000000     0.400977   
C41      C      0.738010000000     0.318800000000     0.854770000000     0.400532   
C42      C      0.727200000000     0.225780000000     0.768280000000     0.402829   
C43      C      0.685170000000     0.259080000000     0.847640000000     0.400802   
C44      C      0.781270000000     0.285170000000     0.773730000000     0.400004   
C45      C      0.612950000000     0.782160000000     0.283200000000     0.40154    
C46      C      0.710790000000     0.774490000000     0.360260000000     0.40104    
C47      C      0.673580000000     0.728730000000     0.288550000000     0.401108   
C48      C      0.650600000000     0.828120000000     0.356710000000     0.400283   
C49      C      0.660510000000     0.723470000000     0.852320000000     0.400457   
C50      C      0.644930000000     0.818630000000     0.771210000000     0.399135   
C51      C      0.600620000000     0.776050000000     0.842450000000     0.40035    
C52      C      0.704520000000     0.767350000000     0.782200000000     0.400088   
C53      C      0.186170000000     0.859540000000     0.401720000000     0.401303   
C54      C      0.174240000000     0.771340000000     0.306190000000     0.400056   
C55      C      0.131330000000     0.801960000000     0.388970000000     0.399512   
C56      C      0.229150000000     0.828700000000     0.319420000000     0.400976   
C57      C      0.166190000000     0.759180000000     0.839290000000     0.400004   
C58      C      0.195860000000     0.852230000000     0.760700000000     0.401343   
C59      C      0.225350000000     0.812360000000     0.846230000000     0.403401   
C60      C      0.136050000000     0.799440000000     0.753660000000     0.402355   
C61      C      0.278590000000     0.295450000000     0.884990000000     0.402093   
C62      C      0.188830000000     0.317030000000     0.796050000000     0.402196   
C63      C      0.223190000000     0.353630000000     0.880960000000     0.401274   
C64      C      0.244410000000     0.259090000000     0.800610000000     0.401429   
C65      C      0.136920000000     0.324200000000     0.788810000000     0.012075   
C66      C      0.083360000000     0.339930000000     0.637220000000     0.01266    
C67      C      0.059070000000     0.375740000000     0.680630000000     0.013211   
C68      C      0.098460000000     0.326600000000     0.671740000000    -0.101321   
C69      C      0.121230000000     0.350100000000     0.771650000000    -0.102273   
C70      C      0.072200000000     0.361560000000     0.716260000000    -0.102388   
C71      C      0.123380000000     0.348700000000     0.728260000000     0.0185713  
C72      C      0.099980000000     0.347250000000     0.705320000000     0.0191185  
C73      C      0.169370000000     0.322100000000     0.730560000000     0.0126606  
C74      C      0.153420000000     0.347150000000     0.712600000000    -0.101677   
C75      C      0.163940000000     0.364790000000     0.431920000000     0.0105309  
C76      C      0.041010000000     0.342170000000     0.459800000000     0.0133268  
C77      C      0.050550000000     0.392150000000     0.482170000000     0.0113546  
C78      C      0.072770000000     0.336310000000     0.455100000000    -0.101006   
C79      C      0.137290000000     0.383910000000     0.429270000000    -0.101635   
C80      C      0.082840000000     0.387990000000     0.476490000000    -0.100884   
C81      C      0.111210000000     0.365370000000     0.422690000000     0.0181276  
C82      C      0.089060000000     0.363960000000     0.448160000000     0.0179497  
C83      C      0.139550000000     0.327010000000     0.391600000000     0.0117018  
C84      C      0.113600000000     0.346410000000     0.387530000000    -0.10143    
C85      C      0.814350000000     0.292690000000     0.426210000000     0.0125185  
C86      C      0.899790000000     0.369370000000     0.506570000000     0.0116352  
C87      C      0.914910000000     0.319840000000     0.486940000000     0.0129459  
C88      C      0.868670000000     0.359490000000     0.510390000000    -0.101599   
C89      C      0.839950000000     0.312800000000     0.426020000000    -0.101522   
C90      C      0.884430000000     0.309080000000     0.491330000000    -0.101671   
C91      C      0.840140000000     0.330910000000     0.462230000000     0.0183607  
C92      C      0.863480000000     0.333400000000     0.485380000000     0.0183669  
C93      C      0.787290000000     0.326830000000     0.468680000000     0.0116245  
C94      C      0.812810000000     0.347400000000     0.469520000000    -0.101837   
C95      C      0.918530000000     0.357840000000     0.689660000000     0.0123081  
C96      C      0.831510000000     0.273190000000     0.758800000000     0.011865   
C97      C      0.805760000000     0.311580000000     0.721690000000     0.0119943  
C98      C      0.858480000000     0.291560000000     0.759910000000    -0.101473   
C99      C      0.887270000000     0.348530000000     0.688330000000    -0.100574   
C100     C      0.832110000000     0.330930000000     0.723550000000    -0.101598   
C101     C      0.883440000000     0.319570000000     0.707470000000     0.01684    
C102     C      0.859010000000     0.313070000000     0.727170000000     0.018314   
C103     C      0.935230000000     0.307210000000     0.693330000000     0.0116749  
C104     C      0.904370000000     0.296400000000     0.694860000000    -0.100411   
C105     C      0.715340000000     0.081520000000     0.663740000000     0.0117655  
C106     C      0.694070000000     0.195800000000     0.731330000000     0.012026   
C107     C      0.745230000000     0.179920000000     0.742630000000     0.0118672  
C108     C      0.683880000000     0.166580000000     0.745660000000    -0.101327   
C109     C      0.725490000000     0.107740000000     0.686780000000    -0.101177   
C110     C      0.734580000000     0.149700000000     0.752090000000    -0.100955   
C111     C      0.701480000000     0.126270000000     0.702770000000     0.0188773  
C112     C      0.705780000000     0.144590000000     0.733120000000     0.017727   
C113     C      0.675550000000     0.114680000000     0.641100000000     0.0143264  
C114     C      0.672860000000     0.125150000000     0.682310000000    -0.101532   
C115     C      0.680300000000     0.220280000000     0.442140000000     0.010419   
C116     C      0.647240000000     0.120530000000     0.486450000000     0.0117854  
C117     C      0.697040000000     0.105460000000     0.466550000000     0.0115767  
C118     C      0.642580000000     0.133530000000     0.446650000000    -0.1021     
C119     C      0.659720000000     0.195860000000     0.431080000000    -0.100637   
C120     C      0.692400000000     0.118680000000     0.426660000000    -0.10215    
C121     C      0.676050000000     0.169830000000     0.416630000000     0.0175004  
C122     C      0.670740000000     0.142640000000     0.429240000000     0.019211   
C123     C      0.718530000000     0.199000000000     0.400400000000     0.0130934  
C124     C      0.697930000000     0.176380000000     0.385730000000    -0.101234   
C125     C      0.661580000000     0.879540000000     0.363640000000     0.0115992  
C126     C      0.611620000000     0.967090000000     0.469980000000     0.011597   
C127     C      0.659440000000     0.974250000000     0.438940000000     0.0129225  
C128     C      0.613070000000     0.934750000000     0.462120000000    -0.101275   
C129     C      0.642200000000     0.905690000000     0.363840000000    -0.101722   
C130     C      0.662310000000     0.942300000000     0.431470000000    -0.101109   
C131     C      0.627230000000     0.907690000000     0.402210000000     0.0184475  
C132     C      0.633170000000     0.928230000000     0.428960000000     0.0185443  
C133     C      0.627540000000     0.854840000000     0.409900000000     0.0104164  
C134     C      0.608840000000     0.881890000000     0.410860000000    -0.101922   
C135     C      0.646200000000     0.871210000000     0.765520000000     0.0123315  
C136     C      0.682270000000     0.943150000000     0.633660000000     0.0125391  
C137     C      0.643900000000     0.969290000000     0.669950000000     0.0116906  
C138     C      0.666540000000     0.914730000000     0.638690000000    -0.101355   
C139     C      0.634110000000     0.894710000000     0.739070000000    -0.101756   
C140     C      0.628560000000     0.941090000000     0.678510000000    -0.100917   
C141     C      0.646120000000     0.892280000000     0.698550000000     0.0167238  
C142     C      0.648290000000     0.915430000000     0.674750000000     0.0177744  
C143     C      0.638720000000     0.839540000000     0.706840000000     0.0127385  
C144     C      0.655340000000     0.862770000000     0.685350000000    -0.101808   
C145     C      0.080800000000     0.813730000000     0.402140000000     0.0115886  
C146     C      0.991940000000     0.740570000000     0.484610000000     0.0111967  
C147     C      0.980790000000     0.792220000000     0.471920000000     0.0118858  
C148     C      0.024090000000     0.746650000000     0.482240000000    -0.100629   
C149     C      0.053860000000     0.795470000000     0.400150000000    -0.1017     
C150     C      0.012510000000     0.799350000000     0.469500000000    -0.100506   
C151     C      0.052680000000     0.775000000000     0.433880000000     0.0187391  
C152     C      0.029930000000     0.773220000000     0.458380000000     0.0175768  
C153     C      0.105740000000     0.774230000000     0.438850000000     0.0112697  
C154     C      0.078610000000     0.755840000000     0.437140000000    -0.102097   
C155     C      0.994250000000     0.742360000000     0.669990000000     0.0109564  
C156     C      0.089060000000     0.817100000000     0.731710000000     0.0132585  
C157     C      0.111880000000     0.774750000000     0.699430000000     0.0110836  
C158     C      0.061400000000     0.800560000000     0.736850000000    -0.101694   
C159     C      0.026180000000     0.748180000000     0.663750000000    -0.100771   
C160     C      0.083630000000     0.758020000000     0.701810000000    -0.10146    
C161     C      0.034650000000     0.776070000000     0.683010000000     0.0176895  
C162     C      0.058560000000     0.778490000000     0.705140000000     0.0184059  
C163     C      0.984720000000     0.794580000000     0.680010000000     0.0123705  
C164     C      0.016020000000     0.801580000000     0.672820000000    -0.100744   
C165     C      0.849840000000     0.740810000000     0.685290000000     0.0124232  
C166     C      0.733150000000     0.777260000000     0.725030000000     0.0118388  
C167     C      0.756780000000     0.766310000000     0.789010000000     0.0128532  
C168     C      0.757360000000     0.762170000000     0.703910000000    -0.101486   
C169     C      0.836760000000     0.751810000000     0.723120000000    -0.102739   
C170     C      0.780340000000     0.749410000000     0.768290000000    -0.102641   
C171     C      0.810070000000     0.768530000000     0.713870000000     0.019172   
C172     C      0.784090000000     0.761330000000     0.728230000000     0.0193917  
C173     C      0.828160000000     0.782770000000     0.649220000000     0.011896   
C174     C      0.814230000000     0.793110000000     0.686300000000    -0.10181    
C175     C      0.761840000000     0.785780000000     0.362620000000     0.0134763  
C176     C      0.836950000000     0.737580000000     0.491600000000     0.0110813  
C177     C      0.843790000000     0.790800000000     0.481760000000     0.0124591  
C178     C      0.829240000000     0.734450000000     0.448930000000    -0.101544   
C179     C      0.784210000000     0.792030000000     0.393410000000    -0.102368   
C180     C      0.838040000000     0.787400000000     0.438820000000    -0.102348   
C181     C      0.791800000000     0.765330000000     0.416000000000     0.0174147  
C182     C      0.817950000000     0.762440000000     0.432970000000     0.0182997  
C183     C      0.738890000000     0.754700000000     0.414270000000     0.0121948  
C184     C      0.769060000000     0.742290000000     0.419060000000    -0.101681   
C185     C      0.248570000000     0.230240000000     0.377140000000     0.01207    
C186     C      0.244720000000     0.164790000000     0.524920000000     0.0122162  
C187     C      0.281920000000     0.140430000000     0.483620000000     0.0126352  
C188     C      0.233890000000     0.181300000000     0.489990000000    -0.10139    
C189     C      0.268780000000     0.209250000000     0.397590000000    -0.102345   
C190     C      0.270400000000     0.155650000000     0.447650000000    -0.10241    
C191     C      0.261540000000     0.208420000000     0.439960000000     0.018858   
C192     C      0.256700000000     0.183610000000     0.459290000000     0.0188702  
C193     C      0.242700000000     0.258340000000     0.439070000000     0.011735   
C194     C      0.261950000000     0.237130000000     0.459910000000    -0.101585   
C195     C      0.272050000000     0.234510000000     0.749530000000     0.0106004  
C196     C      0.244860000000     0.117930000000     0.704670000000     0.0133054  
C197     C      0.295410000000     0.126620000000     0.684170000000     0.0118986  
C198     C      0.241110000000     0.149180000000     0.715700000000    -0.101373   
C199     C      0.291210000000     0.207920000000     0.752460000000    -0.101672   
C200     C      0.293250000000     0.158170000000     0.696250000000    -0.101481   
C201     C      0.272390000000     0.181710000000     0.755230000000     0.0179429  
C202     C      0.269650000000     0.162670000000     0.725670000000     0.0189197  
C203     C      0.232960000000     0.208540000000     0.785940000000     0.0114751  
C204     C      0.252460000000     0.182550000000     0.789420000000    -0.101331   
C205     C      0.219000000000     0.998590000000     0.676770000000     0.011629   
C206     C      0.224090000000     0.873980000000     0.708100000000     0.0114103  
C207     C      0.189110000000     0.903730000000     0.746430000000     0.0118254  
C208     C      0.246210000000     0.898110000000     0.710130000000    -0.102118   
C209     C      0.208620000000     0.967740000000     0.678150000000    -0.101333   
C210     C      0.211020000000     0.927830000000     0.748510000000    -0.101603   
C211     C      0.233070000000     0.947690000000     0.687440000000     0.018694   
C212     C      0.230800000000     0.926400000000     0.714100000000     0.0184728  
C213     C      0.268490000000     0.981990000000     0.659330000000     0.0115527  
C214     C      0.258830000000     0.950670000000     0.661340000000    -0.101752   
C215     C      0.257700000000     0.997770000000     0.474050000000     0.0114866  
C216     C      0.169700000000     0.907040000000     0.424140000000     0.0132992  
C217     C      0.210560000000     0.882700000000     0.456900000000     0.0117981  
C218     C      0.187050000000     0.934360000000     0.419090000000    -0.101327   
C219     C      0.248240000000     0.966820000000     0.480830000000    -0.100281   
C220     C      0.228990000000     0.909720000000     0.453210000000    -0.100912   
C221     C      0.218250000000     0.961940000000     0.465350000000     0.0169363  
C222     C      0.210560000000     0.936400000000     0.449150000000     0.0177801  
C223     C      0.207380000000     0.014790000000     0.471480000000     0.0127354  
C224     C      0.196160000000     0.984330000000     0.477000000000    -0.10094    
C225     C      0.753280000000     0.459420000000     0.172220000000     0.0108785  
C226     C      0.719730000000     0.403520000000     0.326860000000     0.0125895  
C227     C      0.756050000000     0.379290000000     0.283420000000     0.0118881  
C228     C      0.709670000000     0.419420000000     0.290850000000    -0.10128    
C229     C      0.756660000000     0.461150000000     0.216090000000    -0.100923   
C230     C      0.761980000000     0.410140000000     0.270250000000    -0.101894   
C231     C      0.731570000000     0.447100000000     0.236400000000     0.0174967  
C232     C      0.734380000000     0.426590000000     0.264230000000     0.0173399  
C233     C      0.700090000000     0.454470000000     0.179990000000     0.0117513  
C234     C      0.702720000000     0.458170000000     0.223560000000    -0.101251   
C235     C      0.670930000000     0.591040000000     0.171590000000     0.0115286  
C236     C      0.704170000000     0.701050000000     0.244070000000     0.0119096  
C237     C      0.669970000000     0.676070000000     0.288890000000     0.0123543  
C238     C      0.696700000000     0.679960000000     0.212060000000    -0.101548   
C239     C      0.675020000000     0.600170000000     0.213600000000    -0.102116   
C240     C      0.661760000000     0.654910000000     0.257160000000    -0.102294   
C241     C      0.694490000000     0.625960000000     0.214810000000     0.0183861  
C242     C      0.685910000000     0.651920000000     0.228500000000     0.0190395  
C243     C      0.719490000000     0.611450000000     0.154690000000     0.0114906  
C244     C      0.723290000000     0.620730000000     0.196480000000    -0.101561   
C245     C      0.670180000000     0.671810000000     0.853330000000     0.0130504  
C246     C      0.670880000000     0.603740000000     0.001120000000     0.0112587  
C247     C      0.717120000000     0.592950000000     0.965960000000     0.013147   
C248     C      0.658290000000     0.615960000000     0.964090000000    -0.101398   
C249     C      0.691310000000     0.654060000000     0.877000000000    -0.102328   
C250     C      0.703820000000     0.603100000000     0.928010000000    -0.102829   
C251     C      0.679990000000     0.650690000000     0.917440000000     0.018511   
C252     C      0.681460000000     0.625430000000     0.936670000000     0.0191375  
C253     C      0.653920000000     0.697780000000     0.913350000000     0.0116865  
C254     C      0.672730000000     0.678330000000     0.938000000000    -0.101091   
C255     C      0.703230000000     0.437310000000     0.995220000000     0.0126679  
C256     C      0.734790000000     0.370960000000     0.861880000000     0.0131202  
C257     C      0.734360000000     0.338260000000     0.920140000000     0.0114231  
C258     C      0.752110000000     0.393130000000     0.884310000000    -0.102781   
C259     C      0.720180000000     0.410110000000     0.985390000000    -0.101457   
C260     C      0.749370000000     0.361370000000     0.943770000000    -0.101687   
C261     C      0.736620000000     0.413770000000     0.948040000000     0.0168847  
C262     C      0.744880000000     0.390790000000     0.926600000000     0.019078   
C263     C      0.747220000000     0.463500000000     0.970610000000     0.0132674  
C264     C      0.743280000000     0.444100000000     0.935430000000    -0.102259   
C265     C      0.563230000000     0.765820000000     0.272660000000     0.0118493  
C266     C      0.471180000000     0.827110000000     0.180040000000     0.0124314  
C267     C      0.462000000000     0.777020000000     0.201730000000     0.0129075  
C268     C      0.503420000000     0.823390000000     0.185450000000    -0.101103   
C269     C      0.536120000000     0.783820000000     0.274540000000    -0.101363   
C270     C      0.493800000000     0.771850000000     0.208300000000    -0.101036   
C271     C      0.533040000000     0.801420000000     0.238140000000     0.0180879  
C272     C      0.509960000000     0.799780000000     0.214220000000     0.0178653  
C273     C      0.585660000000     0.802320000000     0.228480000000     0.0112261  
C274     C      0.558450000000     0.820560000000     0.229970000000    -0.101617   
C275     C      0.327410000000     0.775340000000     0.165070000000     0.0133988  
C276     C      0.257210000000     0.858480000000     0.273660000000     0.0123751  
C277     C      0.280590000000     0.819130000000     0.309270000000     0.0139593  
C278     C      0.269520000000     0.847900000000     0.235120000000    -0.0990382  
C279     C      0.323700000000     0.787440000000     0.205520000000    -0.100357   
C280     C      0.289480000000     0.803430000000     0.272780000000    -0.0996489  
C281     C      0.306440000000     0.815120000000     0.205730000000     0.0169333  
C282     C      0.290670000000     0.822930000000     0.237530000000     0.0165092  
C283     C      0.320490000000     0.822900000000     0.134550000000     0.0123188  
C284     C      0.312460000000     0.836480000000     0.173330000000    -0.0999912  
C285     C      0.244010000000     0.815080000000     0.912480000000     0.0120205  
C286     C      0.367080000000     0.787970000000     0.947620000000     0.0143255  
C287     C      0.338000000000     0.752290000000     0.984660000000     0.0124973  
C288     C      0.340380000000     0.804860000000     0.936990000000    -0.101219   
C289     C      0.260670000000     0.790010000000     0.930120000000    -0.101581   
C290     C      0.310560000000     0.769250000000     0.976950000000    -0.10125    
C291     C      0.291300000000     0.790970000000     0.916210000000     0.0182618  
C292     C      0.313690000000     0.786560000000     0.940250000000     0.0179578  
C293     C      0.277400000000     0.816670000000     0.855810000000     0.0139062  
C294     C      0.295380000000     0.792670000000     0.872950000000    -0.101462   
C295     C      0.489630000000     0.745160000000     0.998550000000     0.00995113 
C296     C      0.567460000000     0.802880000000     0.884180000000     0.0138224  
C297     C      0.551590000000     0.757150000000     0.853090000000     0.00992953 
C298     C      0.560200000000     0.791360000000     0.923850000000    -0.101188   
C299     C      0.494300000000     0.746030000000     0.954480000000    -0.101084   
C300     C      0.540950000000     0.745780000000     0.892390000000    -0.100709   
C301     C      0.512080000000     0.771910000000     0.943280000000     0.0178829  
C302     C      0.535810000000     0.770190000000     0.920570000000     0.0176971  
C303     C      0.499470000000     0.797930000000     0.002890000000     0.0128548  
C304     C      0.501140000000     0.799980000000     0.959290000000    -0.101209   
C305     C      0.164740000000     0.753820000000     0.240460000000     0.012314   
C306     C      0.154820000000     0.633970000000     0.174230000000     0.0125734  
C307     C      0.201660000000     0.653960000000     0.148480000000     0.0124598  
C308     C      0.163030000000     0.650090000000     0.211030000000    -0.101932   
C309     C      0.179850000000     0.732020000000     0.214510000000    -0.101614   
C310     C      0.190140000000     0.682700000000     0.163060000000    -0.101724   
C311     C      0.173210000000     0.701590000000     0.226860000000     0.0167213  
C312     C      0.175340000000     0.679300000000     0.201670000000     0.0167499  
C313     C      0.177440000000     0.719540000000     0.294840000000     0.0127238  
C314     C      0.163990000000     0.697060000000     0.268320000000    -0.102107   
C315     C      0.232370000000     0.507800000000     0.162830000000     0.010463   
C316     C      0.197800000000     0.409810000000     0.260570000000     0.0123036  
C317     C      0.240280000000     0.432430000000     0.293200000000     0.0109566  
C318     C      0.205530000000     0.424600000000     0.222980000000    -0.101548   
C319     C      0.233920000000     0.501430000000     0.206280000000    -0.101965   
C320     C      0.247690000000     0.448720000000     0.256000000000    -0.101834   
C321     C      0.213060000000     0.477860000000     0.216230000000     0.018678   
C322     C      0.221310000000     0.452190000000     0.231200000000     0.0187588  
C323     C      0.181560000000     0.489180000000     0.161110000000     0.0119798  
C324     C      0.182730000000     0.484320000000     0.204390000000    -0.10182    
C325     C      0.234370000000     0.404390000000     0.895050000000     0.012005   
C326     C      0.158490000000     0.489220000000     0.979650000000     0.0120673  
C327     C      0.207980000000     0.504300000000     0.961120000000     0.0125546  
C328     C      0.167040000000     0.457600000000     0.977880000000    -0.101424   
C329     C      0.214130000000     0.429870000000     0.892540000000    -0.101494   
C330     C      0.217650000000     0.473180000000     0.959490000000    -0.101297   
C331     C      0.194700000000     0.430470000000     0.927410000000     0.018104   
C332     C      0.192610000000     0.453380000000     0.951640000000     0.0182173  
C333     C      0.198140000000     0.377590000000     0.934860000000     0.0111577  
C334     C      0.177710000000     0.403200000000     0.933120000000    -0.101691   
C335     C      0.131400000000     0.634030000000     0.977760000000     0.0115255  
C336     C      0.178390000000     0.709760000000     0.857220000000     0.011764   
C337     C      0.139100000000     0.737060000000     0.892590000000     0.0105639  
C338     C      0.161390000000     0.682360000000     0.863010000000    -0.102181   
C339     C      0.130890000000     0.665610000000     0.965340000000    -0.102153   
C340     C      0.123120000000     0.708730000000     0.899040000000    -0.10234    
C341     C      0.151780000000     0.670550000000     0.932730000000     0.0193917  
C342     C      0.144490000000     0.684580000000     0.899760000000     0.0190438  
C343     C      0.181440000000     0.628750000000     0.951770000000     0.0123188  
C344     C      0.181820000000     0.660190000000     0.940620000000    -0.101569   
C345     C      0.415910000000     0.264520000000     0.187910000000     0.0119377  
C346     C      0.309150000000     0.325740000000     0.236420000000     0.0123673  
C347     C      0.337950000000     0.318100000000     0.297080000000     0.011872   
C348     C      0.326690000000     0.303070000000     0.215660000000    -0.101415   
C349     C      0.405690000000     0.281370000000     0.223400000000    -0.102082   
C350     C      0.355670000000     0.294770000000     0.276940000000    -0.101951   
C351     C      0.380150000000     0.299480000000     0.212640000000     0.0186664  
C352     C      0.355840000000     0.300080000000     0.233980000000     0.0185489  
C353     C      0.395230000000     0.302260000000     0.143860000000     0.0124706  
C354     C      0.384580000000     0.319090000000     0.178520000000    -0.101549   
C355     C      0.549820000000     0.318440000000     0.176530000000     0.0118168  
C356     C      0.648020000000     0.272980000000     0.266680000000     0.0119519  
C357     C      0.623160000000     0.310200000000     0.307480000000     0.0117163  
C358     C      0.635290000000     0.286450000000     0.230540000000    -0.101497   
C359     C      0.558590000000     0.317080000000     0.219080000000    -0.102526   
C360     C      0.610780000000     0.324340000000     0.271340000000    -0.102194   
C361     C      0.582220000000     0.295330000000     0.224050000000     0.0193956  
C362     C      0.607840000000     0.301980000000     0.240180000000     0.0186039  
C363     C      0.566700000000     0.267430000000     0.166970000000     0.012144   
C364     C      0.575070000000     0.265830000000     0.209230000000    -0.101948   
C365     C      0.659640000000     0.232540000000     0.899220000000     0.0120548  
C366     C      0.558360000000     0.293160000000     0.981810000000     0.0129054  
C367     C      0.562090000000     0.239890000000     0.996270000000     0.012469   
C368     C      0.571520000000     0.284930000000     0.943060000000    -0.102191   
C369     C      0.645920000000     0.247500000000     0.933760000000    -0.100422   
C370     C      0.592990000000     0.243040000000     0.982260000000    -0.101782   
C371     C      0.617820000000     0.261920000000     0.922990000000     0.0165863  
C372     C      0.595330000000     0.263200000000     0.948090000000     0.0172458  
C373     C      0.632580000000     0.263190000000     0.853230000000     0.0125375  
C374     C      0.618160000000     0.279470000000     0.886050000000    -0.10047    
C375     C      0.300570000000     0.269540000000     0.940070000000     0.0101876  
C376     C      0.424060000000     0.283060000000     0.964550000000     0.013629   
C377     C      0.411230000000     0.235230000000     0.992360000000     0.0110213  
C378     C      0.392890000000     0.291870000000     0.963550000000    -0.101454   
C379     C      0.325450000000     0.247980000000     0.938860000000    -0.101493   
C380     C      0.379200000000     0.242250000000     0.988850000000    -0.101299   
C381     C      0.353190000000     0.263890000000     0.932060000000     0.0180595  
C382     C      0.374230000000     0.265550000000     0.959070000000     0.018646   
C383     C      0.329360000000     0.304370000000     0.900200000000     0.0122407  
C384     C      0.352860000000     0.282130000000     0.896190000000    -0.101422   
Cu1      Cu     0.485850000000     0.249820000000     0.086900000000     0.835218   
Cu2      Cu     0.483570000000     0.301520000000     0.073500000000     0.844893   
Cu3      Cu     0.156120000000     0.564140000000     0.074070000000     0.840572   
Cu4      Cu     0.207110000000     0.574020000000     0.062530000000     0.83957    
Cu5      Cu     0.409380000000     0.759750000000     0.085080000000     0.836578   
Cu6      Cu     0.411360000000     0.811190000000     0.069750000000     0.840351   
Cu7      Cu     0.684700000000     0.519040000000     0.076230000000     0.844736   
Cu8      Cu     0.736100000000     0.530350000000     0.072740000000     0.836121   
Cu9      Cu     0.277360000000     0.063610000000     0.576260000000     0.838301   
Cu10     Cu     0.225920000000     0.073230000000     0.583630000000     0.841899   
Cu11     Cu     0.916950000000     0.738940000000     0.579420000000     0.833287   
Cu12     Cu     0.915180000000     0.791650000000     0.578090000000     0.846901   
Cu13     Cu     0.640100000000     0.037330000000     0.565030000000     0.837627   
Cu14     Cu     0.690250000000     0.025350000000     0.551380000000     0.839444   
Cu15     Cu     0.991420000000     0.323860000000     0.578010000000     0.838838   
Cu16     Cu     0.983490000000     0.375640000000     0.586160000000     0.839395   
Cu17     Cu     0.251310000000     0.344630000000     0.364700000000     0.833275   
Cu18     Cu     0.224360000000     0.319280000000     0.314490000000     0.839135   
Cu19     Cu     0.704390000000     0.313490000000     0.389870000000     0.840328   
Cu20     Cu     0.733780000000     0.289510000000     0.340550000000     0.841574   
Cu21     Cu     0.719450000000     0.286370000000     0.787420000000     0.844451   
Cu22     Cu     0.747100000000     0.258400000000     0.834670000000     0.835001   
Cu23     Cu     0.674140000000     0.791320000000     0.296050000000     0.84518    
Cu24     Cu     0.649310000000     0.765640000000     0.348280000000     0.837049   
Cu25     Cu     0.662100000000     0.785410000000     0.839230000000     0.835839   
Cu26     Cu     0.643040000000     0.757030000000     0.785300000000     0.838402   
Cu27     Cu     0.167130000000     0.830910000000     0.331390000000     0.836241   
Cu28     Cu     0.193230000000     0.799840000000     0.376690000000     0.840152   
Cu29     Cu     0.195460000000     0.791090000000     0.778100000000     0.841924   
Cu30     Cu     0.166100000000     0.820440000000     0.821780000000     0.840731   
Cu31     Cu     0.249030000000     0.320010000000     0.818530000000     0.844553   
Cu32     Cu     0.218200000000     0.292730000000     0.862800000000     0.838528   
H1       H      0.098870000000     0.349610000000     0.782100000000     0.0430642  
H2       H      0.098090000000     0.355700000000     0.623890000000     0.0258859  
H3       H      0.160210000000     0.301960000000     0.718890000000     0.026323   
H4       H      0.154390000000     0.345970000000     0.680760000000     0.0432592  
H5       H      0.119530000000     0.318410000000     0.662430000000     0.0435291  
H6       H      0.075540000000     0.378520000000     0.738210000000     0.0432138  
H7       H      0.137210000000     0.326360000000     0.820680000000     0.0337229  
H8       H      0.079140000000     0.323090000000     0.615360000000     0.0341573  
H9       H      0.164610000000     0.367230000000     0.720650000000     0.0523986  
H10      H      0.057260000000     0.345360000000     0.728130000000     0.0509746  
H11      H      0.192120000000     0.322900000000     0.721580000000     0.0347166  
H12      H      0.072850000000     0.393890000000     0.671580000000     0.0292071  
H13      H      0.131290000000     0.370190000000     0.782020000000     0.050206   
H14      H      0.086020000000     0.307640000000     0.681220000000     0.0526708  
H15      H      0.037770000000     0.384460000000     0.688480000000     0.0335316  
H16      H      0.124880000000     0.304450000000     0.781490000000     0.0296133  
H17      H      0.136230000000     0.396710000000     0.456070000000     0.0427089  
H18      H      0.032550000000     0.349900000000     0.431760000000     0.0263561  
H19      H      0.135880000000     0.312190000000     0.416120000000     0.027038   
H20      H      0.094190000000     0.333890000000     0.380930000000     0.0428538  
H21      H      0.075570000000     0.319810000000     0.432670000000     0.0433286  
H22      H      0.091350000000     0.408750000000     0.466070000000     0.0427213  
H23      H      0.183060000000     0.378790000000     0.433320000000     0.0362562  
H24      H      0.029800000000     0.321880000000     0.466720000000     0.0351545  
H25      H      0.116860000000     0.360340000000     0.361980000000     0.0519789  
H26      H      0.092990000000     0.382890000000     0.504560000000     0.0499108  
H27      H      0.141550000000     0.313800000000     0.365180000000     0.0361067  
H28      H      0.041570000000     0.401740000000     0.455500000000     0.0281326  
H29      H      0.139670000000     0.399000000000     0.404780000000     0.0500808  
H30      H      0.080900000000     0.326670000000     0.482190000000     0.0536014  
H31      H      0.047060000000     0.407490000000     0.506120000000     0.0354049  
H32      H      0.162920000000     0.352530000000     0.459310000000     0.0282982  
H33      H      0.859760000000     0.300560000000     0.420820000000     0.0431358  
H34      H      0.902870000000     0.378500000000     0.477300000000     0.0284927  
H35      H      0.788510000000     0.312670000000     0.494340000000     0.0286739  
H36      H      0.812540000000     0.358010000000     0.498070000000     0.0428945  
H37      H      0.855140000000     0.377910000000     0.501900000000     0.0427525  
H38      H      0.881060000000     0.290360000000     0.472460000000     0.0433479  
H39      H      0.813710000000     0.280780000000     0.398560000000     0.0356083  
H40      H      0.903660000000     0.386710000000     0.527790000000     0.0353195  
H41      H      0.810190000000     0.364020000000     0.446960000000     0.0507193  
H42      H      0.881670000000     0.301000000000     0.521170000000     0.053038   
H43      H      0.767390000000     0.339610000000     0.471080000000     0.0362403  
H44      H      0.918260000000     0.326060000000     0.456380000000     0.0265212  
H45      H      0.837860000000     0.327420000000     0.400970000000     0.0527562  
H46      H      0.864000000000     0.354050000000     0.540880000000     0.0496332  
H47      H      0.929920000000     0.302090000000     0.493380000000     0.0353168  
H48      H      0.817410000000     0.276770000000     0.449610000000     0.0269702  
H49      H      0.874870000000     0.365440000000     0.703310000000     0.0425103  
H50      H      0.833250000000     0.258270000000     0.734000000000     0.0270678  
H51      H      0.942910000000     0.309820000000     0.723390000000     0.0265094  
H52      H      0.903950000000     0.276950000000     0.712860000000     0.0427872  
H53      H      0.877240000000     0.277320000000     0.761170000000     0.0429071  
H54      H      0.831910000000     0.344010000000     0.696890000000     0.042706   
H55      H      0.920680000000     0.378450000000     0.674050000000     0.0359919  
H56      H      0.830610000000     0.259950000000     0.785330000000     0.0355662  
H57      H      0.898120000000     0.289510000000     0.665440000000     0.0522019  
H58      H      0.830430000000     0.345530000000     0.748670000000     0.050096   
H59      H      0.948860000000     0.290790000000     0.679350000000     0.0354398  
H60      H      0.806100000000     0.299650000000     0.694000000000     0.0292003  
H61      H      0.879980000000     0.347280000000     0.657950000000     0.0508053  
H62      H      0.858580000000     0.303740000000     0.787370000000     0.0519316  
H63      H      0.786450000000     0.325370000000     0.721810000000     0.0353053  
H64      H      0.924560000000     0.361670000000     0.720190000000     0.0271607  
H65      H      0.738860000000     0.098960000000     0.710260000000     0.043023   
H66      H      0.695410000000     0.195540000000     0.699380000000     0.0296738  
H67      H      0.653940000000     0.113870000000     0.627940000000     0.0347981  
H68      H      0.658150000000     0.110970000000     0.698560000000     0.0521962  
H69      H      0.661670000000     0.162270000000     0.736630000000     0.0424959  
H70      H      0.751430000000     0.134300000000     0.744130000000     0.042432   
H71      H      0.733410000000     0.073360000000     0.646160000000     0.0345801  
H72      H      0.678200000000     0.212290000000     0.739930000000     0.0335998  
H73      H      0.663130000000     0.146650000000     0.679690000000     0.0437671  
H74      H      0.731940000000     0.147870000000     0.783780000000     0.051553   
H75      H      0.688050000000     0.130610000000     0.624350000000     0.0279036  
H76      H      0.752050000000     0.180140000000     0.711990000000     0.0271772  
H77      H      0.739130000000     0.121280000000     0.668020000000     0.0492706  
H78      H      0.683000000000     0.167030000000     0.777640000000     0.052353   
H79      H      0.764390000000     0.184810000000     0.760300000000     0.0337944  
H80      H      0.709740000000     0.064090000000     0.684160000000     0.0292628  
H81      H      0.646970000000     0.191190000000     0.457180000000     0.0434825  
H82      H      0.653810000000     0.137850000000     0.506500000000     0.0275559  
H83      H      0.730160000000     0.190210000000     0.425680000000     0.0272438  
H84      H      0.709870000000     0.157700000000     0.374760000000     0.0424495  
H85      H      0.626410000000     0.150740000000     0.448220000000     0.042593   
H86      H      0.713690000000     0.125740000000     0.416790000000     0.0434418  
H87      H      0.667660000000     0.239980000000     0.447480000000     0.0359998  
H88      H      0.626540000000     0.111990000000     0.496950000000     0.0359871  
H89      H      0.686470000000     0.185130000000     0.360310000000     0.0531014  
H90      H      0.684500000000     0.102080000000     0.406410000000     0.0496564  
H91      H      0.734610000000     0.203560000000     0.377750000000     0.0357855  
H92      H      0.708850000000     0.121040000000     0.484750000000     0.0300361  
H93      H      0.645020000000     0.203300000000     0.408100000000     0.0496218  
H94      H      0.633140000000     0.116870000000     0.427730000000     0.0512656  
H95      H      0.710840000000     0.086290000000     0.463080000000     0.0354928  
H96      H      0.691030000000     0.214410000000     0.469560000000     0.0291082  
H97      H      0.654030000000     0.925280000000     0.355700000000     0.0427162  
H98      H      0.599830000000     0.977470000000     0.445980000000     0.0283224  
H99      H      0.641690000000     0.854970000000     0.435590000000     0.0295021  
H100     H      0.598250000000     0.882810000000     0.439330000000     0.0426464  
H101     H      0.590950000000     0.927700000000     0.455720000000     0.0426215  
H102     H      0.676010000000     0.939140000000     0.405930000000     0.0433453  
H103     H      0.671420000000     0.877660000000     0.334670000000     0.0360183  
H104     H      0.599320000000     0.970670000000     0.496900000000     0.0350845  
H105     H      0.591870000000     0.880130000000     0.388660000000     0.0493849  
H106     H      0.673970000000     0.932490000000     0.455990000000     0.0533532  
H107     H      0.613350000000     0.835900000000     0.412350000000     0.0357751  
H108     H      0.649940000000     0.984330000000     0.412940000000     0.0263676  
H109     H      0.625810000000     0.902880000000     0.341040000000     0.0511906  
H110     H      0.620610000000     0.923420000000     0.488320000000     0.0499981  
H111     H      0.681010000000     0.983650000000     0.442900000000     0.0352505  
H112     H      0.679160000000     0.883020000000     0.384610000000     0.0273575  
H113     H      0.610490000000     0.892940000000     0.737930000000     0.0493367  
H114     H      0.698120000000     0.945480000000     0.657270000000     0.0287951  
H115     H      0.615630000000     0.841420000000     0.699950000000     0.03079    
H116     H      0.651130000000     0.859860000000     0.654110000000     0.0430174  
H117     H      0.683020000000     0.897710000000     0.639840000000     0.0428742  
H118     H      0.618410000000     0.942870000000     0.707200000000     0.0425809  
H119     H      0.669300000000     0.875200000000     0.770490000000     0.0326299  
H120     H      0.694100000000     0.942480000000     0.605940000000     0.0351309  
H121     H      0.678550000000     0.860030000000     0.690690000000     0.049802   
H122     H      0.610990000000     0.938410000000     0.657350000000     0.0512458  
H123     H      0.646050000000     0.818310000000     0.696320000000     0.0335205  
H124     H      0.657780000000     0.974410000000     0.694970000000     0.0268401  
H125     H      0.639900000000     0.915630000000     0.752060000000     0.0436996  
H126     H      0.652680000000     0.910720000000     0.613310000000     0.0503466  
H127     H      0.627850000000     0.986690000000     0.667650000000     0.0354463  
H128     H      0.635490000000     0.872400000000     0.794040000000     0.031484   
H129     H      0.034850000000     0.809270000000     0.396990000000     0.0430041  
H130     H      0.984420000000     0.733430000000     0.455800000000     0.028317   
H131     H      0.106300000000     0.785520000000     0.467010000000     0.0294775  
H132     H      0.078470000000     0.742410000000     0.463430000000     0.0427276  
H133     H      0.034040000000     0.727340000000     0.469360000000     0.0424952  
H134     H      0.015310000000     0.817980000000     0.450320000000     0.0431114  
H135     H      0.082080000000     0.827000000000     0.375670000000     0.0359018  
H136     H      0.988470000000     0.722680000000     0.505130000000     0.0351184  
H137     H      0.079550000000     0.741440000000     0.411740000000     0.0499096  
H138     H      0.019800000000     0.806450000000     0.498400000000     0.0525787  
H139     H      0.124500000000     0.759710000000     0.437760000000     0.0356094  
H140     H      0.972910000000     0.787940000000     0.442290000000     0.0265911  
H141     H      0.054710000000     0.782560000000     0.373320000000     0.0518797  
H142     H      0.032870000000     0.749710000000     0.511650000000     0.0495937  
H143     H      0.969080000000     0.811200000000     0.482900000000     0.0353433  
H144     H      0.078830000000     0.828590000000     0.426980000000     0.0274124  
H145     H      0.037810000000     0.729540000000     0.675760000000     0.042632   
H146     H      0.087780000000     0.829370000000     0.704340000000     0.0267513  
H147     H      0.981580000000     0.791610000000     0.711480000000     0.0265703  
H148     H      0.021630000000     0.821750000000     0.687530000000     0.0432218  
H149     H      0.043280000000     0.815540000000     0.739560000000     0.0433179  
H150     H      0.082470000000     0.744530000000     0.675590000000     0.0427506  
H151     H      0.988110000000     0.723180000000     0.653060000000     0.0360994  
H152     H      0.091210000000     0.832850000000     0.755460000000     0.0356596  
H153     H      0.018840000000     0.806020000000     0.641620000000     0.0533404  
H154     H      0.083950000000     0.743750000000     0.727370000000     0.0500272  
H155     H      0.971340000000     0.812980000000     0.670920000000     0.0356126  
H156     H      0.113060000000     0.785280000000     0.670790000000     0.0285433  
H157     H      0.030800000000     0.749560000000     0.632450000000     0.0503359  
H158     H      0.062320000000     0.789040000000     0.764800000000     0.053503   
H159     H      0.129870000000     0.759350000000     0.701440000000     0.0357087  
H160     H      0.990810000000     0.737300000000     0.700920000000     0.0275964  
H161     H      0.832450000000     0.733090000000     0.741890000000     0.0432642  
H162     H      0.737630000000     0.800610000000     0.724940000000     0.0264029  
H163     H      0.812120000000     0.770290000000     0.632690000000     0.0265465  
H164     H      0.794240000000     0.804840000000     0.679810000000     0.0435303  
H165     H      0.760550000000     0.772210000000     0.675330000000     0.0435362  
H166     H      0.800160000000     0.751290000000     0.785640000000     0.0432693  
H167     H      0.870780000000     0.730690000000     0.691700000000     0.032758   
H168     H      0.712970000000     0.774020000000     0.708790000000     0.0340583  
H169     H      0.828700000000     0.808860000000     0.700160000000     0.052034   
H170     H      0.774350000000     0.726460000000     0.766490000000     0.0503669  
H171     H      0.833940000000     0.801640000000     0.631390000000     0.0350067  
H172     H      0.764490000000     0.788420000000     0.794520000000     0.0307313  
H173     H      0.852240000000     0.765960000000     0.738060000000     0.0505443  
H174     H      0.750770000000     0.739740000000     0.698210000000     0.0519708  
H175     H      0.752450000000     0.756070000000     0.817310000000     0.0319926  
H176     H      0.835640000000     0.724080000000     0.673030000000     0.0305199  
H177     H      0.803110000000     0.800520000000     0.377880000000     0.0428809  
H178     H      0.816830000000     0.739010000000     0.508430000000     0.0273701  
H179     H      0.723290000000     0.736790000000     0.414360000000     0.0341163  
H180     H      0.772910000000     0.725830000000     0.396600000000     0.0495722  
H181     H      0.814520000000     0.716130000000     0.445170000000     0.0425141  
H182     H      0.829780000000     0.808160000000     0.428350000000     0.0426764  
H183     H      0.756270000000     0.806270000000     0.348180000000     0.0341196  
H184     H      0.848250000000     0.717910000000     0.501080000000     0.0358779  
H185     H      0.769730000000     0.731920000000     0.447800000000     0.043814   
H186     H      0.858400000000     0.783100000000     0.423500000000     0.0508002  
H187     H      0.733860000000     0.768490000000     0.439420000000     0.030697   
H188     H      0.823660000000     0.797250000000     0.496330000000     0.0284039  
H189     H      0.776080000000     0.808650000000     0.413450000000     0.0501539  
H190     H      0.848910000000     0.728810000000     0.432770000000     0.050635   
H191     H      0.859310000000     0.808550000000     0.485410000000     0.0360999  
H192     H      0.771180000000     0.771510000000     0.340330000000     0.0306253  
H193     H      0.266290000000     0.188040000000     0.383620000000     0.0431889  
H194     H      0.259960000000     0.178700000000     0.540750000000     0.0263932  
H195     H      0.220150000000     0.252140000000     0.444470000000     0.0269581  
H196     H      0.256120000000     0.236120000000     0.490790000000     0.0433583  
H197     H      0.225250000000     0.202210000000     0.499430000000     0.0435039  
H198     H      0.288640000000     0.158990000000     0.427740000000     0.0432233  
H199     H      0.255630000000     0.232670000000     0.346760000000     0.0334283  
H200     H      0.226540000000     0.160480000000     0.544630000000     0.0348731  
H201     H      0.284160000000     0.245390000000     0.458990000000     0.0518863  
H202     H      0.254350000000     0.141930000000     0.433090000000     0.0507958  
H203     H      0.245810000000     0.279920000000     0.451800000000     0.0355019  
H204     H      0.300250000000     0.152840000000     0.495200000000     0.0296748  
H205     H      0.291230000000     0.216350000000     0.393900000000     0.0499546  
H206     H      0.215590000000     0.169400000000     0.477470000000     0.0523869  
H207     H      0.289900000000     0.118940000000     0.475090000000     0.0337383  
H208     H      0.226710000000     0.221000000000     0.376880000000     0.0302597  
H209     H      0.305780000000     0.207890000000     0.727380000000     0.0425158  
H210     H      0.251650000000     0.105910000000     0.730710000000     0.0263084  
H211     H      0.218750000000     0.205520000000     0.760640000000     0.027246   
H212     H      0.240110000000     0.162630000000     0.793750000000     0.0427333  
H213     H      0.224850000000     0.150470000000     0.738650000000     0.0435101  
H214     H      0.314420000000     0.164120000000     0.708110000000     0.0427592  
H215     H      0.285910000000     0.253770000000     0.750340000000     0.0361591  
H216     H      0.223930000000     0.109090000000     0.695540000000     0.0352514  
H217     H      0.265480000000     0.184970000000     0.815970000000     0.0512777  
H218     H      0.288880000000     0.171630000000     0.670570000000     0.0499841  
H219     H      0.219190000000     0.209610000000     0.811900000000     0.0361683  
H220     H      0.304500000000     0.114210000000     0.708560000000     0.0282562  
H221     H      0.304600000000     0.209490000000     0.778770000000     0.0496901  
H222     H      0.232120000000     0.160880000000     0.690650000000     0.0534135  
H223     H      0.310410000000     0.124920000000     0.659510000000     0.0350533  
H224     H      0.261170000000     0.234240000000     0.721090000000     0.0286169  
H225     H      0.190190000000     0.966200000000     0.697900000000     0.0432327  
H226     H      0.212310000000     0.875800000000     0.680420000000     0.0289729  
H227     H      0.278130000000     0.987950000000     0.687460000000     0.0287729  
H228     H      0.277430000000     0.938320000000     0.671990000000     0.0426402  
H229     H      0.259500000000     0.896520000000     0.683860000000     0.0426795  
H230     H      0.200380000000     0.948740000000     0.752480000000     0.0430776  
H231     H      0.201050000000     0.012490000000     0.667520000000     0.0359029  
H232     H      0.235700000000     0.853260000000     0.707780000000     0.0361412  
H233     H      0.253270000000     0.942900000000     0.632070000000     0.0493573  
H234     H      0.224060000000     0.924700000000     0.774900000000     0.0520585  
H235     H      0.285400000000     0.983790000000     0.637030000000     0.035058   
H236     H      0.174570000000     0.908010000000     0.721810000000     0.0271126  
H237     H      0.200280000000     0.961920000000     0.649260000000     0.0522275  
H238     H      0.260290000000     0.894830000000     0.735470000000     0.050291   
H239     H      0.176030000000     0.904030000000     0.773080000000     0.0358368  
H240     H      0.225010000000     0.005200000000     0.706420000000     0.0271428  
H241     H      0.264150000000     0.952990000000     0.466180000000     0.0426523  
H242     H      0.157510000000     0.908750000000     0.451510000000     0.0264443  
H243     H      0.209030000000     0.019000000000     0.440060000000     0.0264353  
H244     H      0.175490000000     0.982660000000     0.462020000000     0.0428826  
H245     H      0.172170000000     0.952620000000     0.418400000000     0.0429669  
H246     H      0.242590000000     0.910590000000     0.479350000000     0.0427819  
H247     H      0.278950000000     0.001030000000     0.487500000000     0.0363855  
H248     H      0.153910000000     0.905300000000     0.400400000000     0.0350232  
H249     H      0.191430000000     0.981190000000     0.508050000000     0.0531911  
H250     H      0.243060000000     0.907830000000     0.427600000000     0.0504361  
H251     H      0.191810000000     0.030270000000     0.483600000000     0.0353334  
H252     H      0.199720000000     0.883090000000     0.485370000000     0.0281411  
H253     H      0.248630000000     0.961990000000     0.512140000000     0.0511837  
H254     H      0.197330000000     0.933810000000     0.390280000000     0.0534226  
H255     H      0.224710000000     0.863650000000     0.456110000000     0.0354297  
H256     H      0.260150000000     0.001170000000     0.442540000000     0.0273265  
H257     H      0.777750000000     0.452500000000     0.224430000000     0.0422879  
H258     H      0.733920000000     0.417740000000     0.343930000000     0.0284667  
H259     H      0.700230000000     0.431230000000     0.173180000000     0.0283902  
H260     H      0.684420000000     0.446940000000     0.236940000000     0.0424879  
H261     H      0.698840000000     0.439330000000     0.300440000000     0.0427126  
H262     H      0.775180000000     0.421340000000     0.292100000000     0.0483945  
H263     H      0.770230000000     0.472470000000     0.158420000000     0.0357479  
H264     H      0.700810000000     0.398530000000     0.344920000000     0.0349674  
H265     H      0.700910000000     0.481200000000     0.231050000000     0.0507919  
H266     H      0.774390000000     0.408400000000     0.243160000000     0.0436445  
H267     H      0.679090000000     0.463120000000     0.170870000000     0.0363857  
H268     H      0.776510000000     0.368950000000     0.291690000000     0.0315727  
H269     H      0.756990000000     0.484080000000     0.224490000000     0.0509157  
H270     H      0.694060000000     0.405800000000     0.275230000000     0.0505331  
H271     H      0.747390000000     0.366860000000     0.258750000000     0.0339388  
H272     H      0.756650000000     0.436840000000     0.163330000000     0.0273184  
H273     H      0.653490000000     0.604120000000     0.225600000000     0.0425629  
H274     H      0.723760000000     0.693320000000     0.258790000000     0.0271663  
H275     H      0.711510000000     0.630030000000     0.137880000000     0.0270105  
H276     H      0.738190000000     0.639020000000     0.198540000000     0.0429459  
H277     H      0.715170000000     0.677840000000     0.192470000000     0.0433307  
H278     H      0.656830000000     0.634480000000     0.271940000000     0.0427204  
H279     H      0.658370000000     0.570880000000     0.171350000000     0.0354462  
H280     H      0.709310000000     0.722060000000     0.230860000000     0.0359139  
H281     H      0.733860000000     0.603020000000     0.212350000000     0.051211   
H282     H      0.642280000000     0.662460000000     0.242050000000     0.0504841  
H283     H      0.740700000000     0.605590000000     0.142790000000     0.0358784  
H284     H      0.686900000000     0.666250000000     0.307020000000     0.0284051  
H285     H      0.684840000000     0.582380000000     0.230160000000     0.0496252  
H286     H      0.679300000000     0.689360000000     0.194420000000     0.0521026  
H287     H      0.650970000000     0.679480000000     0.307470000000     0.0356048  
H288     H      0.658120000000     0.607630000000     0.156520000000     0.0289344  
H289     H      0.693790000000     0.633090000000     0.862360000000     0.0432065  
H290     H      0.678790000000     0.621850000000     0.018900000000     0.0269873  
H291     H      0.631850000000     0.689070000000     0.913810000000     0.0260843  
H292     H      0.662370000000     0.675040000000     0.966320000000     0.0432857  
H293     H      0.642820000000     0.633080000000     0.971230000000     0.0432455  
H294     H      0.721320000000     0.611640000000     0.909790000000     0.0431751  
H295     H      0.679500000000     0.675550000000     0.824320000000     0.0335541  
H296     H      0.653600000000     0.593180000000     0.017780000000     0.0351233  
H297     H      0.693070000000     0.689700000000     0.943940000000     0.051623   
H298     H      0.693820000000     0.584770000000     0.912790000000     0.0504776  
H299     H      0.653070000000     0.719370000000     0.926680000000     0.034392   
H300     H      0.729760000000     0.610730000000     0.978650000000     0.0306621  
H301     H      0.712410000000     0.664870000000     0.877830000000     0.0505499  
H302     H      0.645790000000     0.598850000000     0.949650000000     0.0514457  
H303     H      0.732040000000     0.575040000000     0.959720000000     0.0322018  
H304     H      0.650130000000     0.659410000000     0.849600000000     0.0299353  
H305     H      0.735350000000     0.405360000000     0.009110000000     0.0502001  
H306     H      0.711820000000     0.376870000000     0.863080000000     0.0303446  
H307     H      0.766540000000     0.456760000000     0.986810000000     0.0330265  
H308     H      0.763430000000     0.444940000000     0.918620000000     0.0431209  
H309     H      0.747010000000     0.414400000000     0.871990000000     0.0430555  
H310     H      0.742310000000     0.359660000000     0.974140000000     0.0428205  
H311     H      0.686570000000     0.440880000000     0.972970000000     0.031123   
H312     H      0.741590000000     0.371650000000     0.831220000000     0.0334192  
H313     H      0.725590000000     0.452320000000     0.917240000000     0.0498671  
H314     H      0.772650000000     0.356880000000     0.943680000000     0.050853   
H315     H      0.750960000000     0.485820000000     0.960710000000     0.0311009  
H316     H      0.711130000000     0.339390000000     0.926410000000     0.0267005  
H317     H      0.704760000000     0.392150000000     0.982860000000     0.0442056  
H318     H      0.775270000000     0.389130000000     0.880190000000     0.0505138  
H319     H      0.741860000000     0.316950000000     0.930050000000     0.035163   
H320     H      0.692190000000     0.434170000000     0.023240000000     0.0328596  
H321     H      0.517510000000     0.770260000000     0.281510000000     0.0426735  
H322     H      0.462090000000     0.836110000000     0.207010000000     0.0273363  
H323     H      0.584750000000     0.788470000000     0.202490000000     0.0289221  
H324     H      0.556950000000     0.832060000000     0.202150000000     0.0427307  
H325     H      0.511680000000     0.844360000000     0.195480000000     0.0426458  
H326     H      0.496080000000     0.756280000000     0.231980000000     0.0431709  
H327     H      0.565940000000     0.754350000000     0.300410000000     0.0357514  
H328     H      0.467450000000     0.842870000000     0.156640000000     0.0354874  
H329     H      0.560370000000     0.836770000000     0.253210000000     0.0500956  
H330     H      0.502710000000     0.761300000000     0.182290000000     0.0535283  
H331     H      0.604230000000     0.816880000000     0.225170000000     0.0359407  
H332     H      0.452510000000     0.784470000000     0.229290000000     0.0260446  
H333     H      0.538100000000     0.798850000000     0.299180000000     0.0518569  
H334     H      0.513510000000     0.818120000000     0.157390000000     0.0508987  
H335     H      0.451530000000     0.756480000000     0.194100000000     0.035139   
H336     H      0.560500000000     0.749410000000     0.249810000000     0.0271518  
H337     H      0.313130000000     0.770320000000     0.222420000000     0.0425572  
H338     H      0.272210000000     0.874570000000     0.285750000000     0.0254812  
H339     H      0.300460000000     0.816090000000     0.120040000000     0.0253362  
H340     H      0.293750000000     0.850200000000     0.167180000000     0.0420346  
H341     H      0.279700000000     0.866870000000     0.221770000000     0.0420154  
H342     H      0.310750000000     0.794000000000     0.278910000000     0.0425934  
H343     H      0.341440000000     0.756230000000     0.166710000000     0.0355358  
H344     H      0.236700000000     0.869710000000     0.268330000000     0.0351089  
H345     H      0.330240000000     0.850540000000     0.182770000000     0.0504387  
H346     H      0.274120000000     0.785820000000     0.267110000000     0.0517961  
H347     H      0.330510000000     0.839400000000     0.115930000000     0.0350002  
H348     H      0.297900000000     0.834250000000     0.317420000000     0.0261834  
H349     H      0.345010000000     0.791660000000     0.218340000000     0.0515406  
H350     H      0.251500000000     0.841110000000     0.216450000000     0.0494762  
H351     H      0.278230000000     0.803390000000     0.333010000000     0.0352968  
H352     H      0.306220000000     0.768220000000     0.154290000000     0.0265156  
H353     H      0.259200000000     0.791910000000     0.961930000000     0.043133   
H354     H      0.371500000000     0.772570000000     0.923990000000     0.0253097  
H355     H      0.286930000000     0.837390000000     0.864770000000     0.0256597  
H356     H      0.317880000000     0.795320000000     0.863930000000     0.0430442  
H357     H      0.343480000000     0.814500000000     0.908200000000     0.0431242  
H358     H      0.292710000000     0.753690000000     0.974660000000     0.0431692  
H359     H      0.221190000000     0.813140000000     0.920780000000     0.0343254  
H360     H      0.385660000000     0.802680000000     0.949660000000     0.0325861  
H361     H      0.288140000000     0.772060000000     0.860360000000     0.0535715  
H362     H      0.306210000000     0.783890000000     0.001440000000     0.0508384  
H363     H      0.278330000000     0.815650000000     0.823860000000     0.033292   
H364     H      0.340500000000     0.735780000000     0.961850000000     0.0281681  
H365     H      0.250800000000     0.769420000000     0.921320000000     0.0505756  
H366     H      0.338180000000     0.822970000000     0.957470000000     0.054121   
H367     H      0.336060000000     0.741260000000     0.012890000000     0.0340685  
H368     H      0.252420000000     0.835420000000     0.924590000000     0.028478   
H369     H      0.504610000000     0.725590000000     0.946170000000     0.0428297  
H370     H      0.548600000000     0.814580000000     0.872820000000     0.0263128  
H371     H      0.521330000000     0.794350000000     0.014370000000     0.0263624  
H372     H      0.513330000000     0.819140000000     0.950540000000     0.0430898  
H373     H      0.556660000000     0.809260000000     0.944040000000     0.043332   
H374     H      0.521190000000     0.733380000000     0.886780000000     0.0427618  
H375     H      0.473580000000     0.728410000000     0.005260000000     0.035866   
H376     H      0.585210000000     0.818530000000     0.886550000000     0.0351041  
H377     H      0.479260000000     0.803530000000     0.947910000000     0.0535418  
H378     H      0.557140000000     0.731060000000     0.904740000000     0.0492223  
H379     H      0.491770000000     0.818610000000     0.014680000000     0.0354823  
H380     H      0.533280000000     0.767280000000     0.838010000000     0.0286038  
H381     H      0.473310000000     0.747300000000     0.939720000000     0.0497876  
H382     H      0.579100000000     0.779780000000     0.935280000000     0.0544927  
H383     H      0.558980000000     0.738830000000     0.835340000000     0.0352254  
H384     H      0.510050000000     0.738800000000     0.012360000000     0.0283203  
H385     H      0.172650000000     0.735850000000     0.184480000000     0.0431925  
H386     H      0.147150000000     0.612270000000     0.182240000000     0.0333357  
H387     H      0.169010000000     0.716530000000     0.324490000000     0.0326186  
H388     H      0.140370000000     0.698490000000     0.270120000000     0.0494392  
H389     H      0.179100000000     0.637480000000     0.227290000000     0.0495629  
H390     H      0.208480000000     0.697660000000     0.165310000000     0.0431727  
H391     H      0.170950000000     0.775700000000     0.231110000000     0.0340667  
H392     H      0.136790000000     0.645170000000     0.159900000000     0.0314632  
H393     H      0.170710000000     0.675720000000     0.279040000000     0.0431192  
H394     H      0.174730000000     0.691440000000     0.141800000000     0.0497215  
H395     H      0.200890000000     0.716100000000     0.296170000000     0.0317652  
H396     H      0.218890000000     0.646420000000     0.167990000000     0.0308259  
H397     H      0.203260000000     0.735550000000     0.215990000000     0.0496481  
H398     H      0.143460000000     0.652050000000     0.228890000000     0.0431466  
H399     H      0.211340000000     0.657250000000     0.119590000000     0.0338106  
H400     H      0.141280000000     0.751870000000     0.236630000000     0.0304176  
H401     H      0.256350000000     0.495890000000     0.213050000000     0.0428456  
H402     H      0.181930000000     0.423260000000     0.276010000000     0.0265989  
H403     H      0.186720000000     0.468730000000     0.146330000000     0.0270263  
H404     H      0.167030000000     0.467940000000     0.213390000000     0.0430567  
H405     H      0.186280000000     0.427050000000     0.204860000000     0.0433242  
H406     H      0.256900000000     0.469550000000     0.264860000000     0.0428265  
H407     H      0.245340000000     0.527190000000     0.156890000000     0.0358791  
H408     H      0.187300000000     0.389110000000     0.253880000000     0.0358406  
H409     H      0.175950000000     0.504340000000     0.219000000000     0.0518377  
H410     H      0.264140000000     0.436720000000     0.239600000000     0.0498185  
H411     H      0.159350000000     0.494950000000     0.153140000000     0.0360314  
H412     H      0.227540000000     0.446780000000     0.312060000000     0.0286809  
H413     H      0.228290000000     0.521000000000     0.222740000000     0.0497031  
H414     H      0.220040000000     0.410350000000     0.206480000000     0.052533   
H415     H      0.260450000000     0.427350000000     0.308550000000     0.0355201  
H416     H      0.242300000000     0.489690000000     0.147010000000     0.0293301  
H417     H      0.226220000000     0.449800000000     0.887440000000     0.0429013  
H418     H      0.149270000000     0.495420000000     0.951360000000     0.027879   
H419     H      0.210640000000     0.378940000000     0.962010000000     0.0287536  
H420     H      0.165230000000     0.402930000000     0.960200000000     0.0426901  
H421     H      0.147980000000     0.445900000000     0.967350000000     0.042645   
H422     H      0.235480000000     0.471380000000     0.938850000000     0.0432102  
H423     H      0.247360000000     0.403490000000     0.868340000000     0.0358095  
H424     H      0.141490000000     0.491710000000     0.001680000000     0.0356675  
H425     H      0.162650000000     0.400470000000     0.908710000000     0.0498526  
H426     H      0.226710000000     0.467330000000     0.987980000000     0.0528948  
H427     H      0.185200000000     0.357720000000     0.936130000000     0.0361454  
H428     H      0.201320000000     0.510900000000     0.931720000000     0.0265586  
H429     H      0.200560000000     0.427130000000     0.866570000000     0.0519294  
H430     H      0.172370000000     0.449790000000     0.007210000000     0.0502921  
H431     H      0.226400000000     0.517890000000     0.969470000000     0.035573   
H432     H      0.249240000000     0.407960000000     0.919510000000     0.0272864  
H433     H      0.108600000000     0.670530000000     0.956940000000     0.0428765  
H434     H      0.195370000000     0.710960000000     0.879500000000     0.0269026  
H435     H      0.174870000000     0.616050000000     0.926220000000     0.0268708  
H436     H      0.196970000000     0.663440000000     0.916600000000     0.0433796  
H437     H      0.175340000000     0.663240000000     0.861750000000     0.0430698  
H438     H      0.110540000000     0.710760000000     0.925880000000     0.0426985  
H439     H      0.118490000000     0.631770000000     0.004420000000     0.0351192  
H440     H      0.189170000000     0.708440000000     0.828800000000     0.0359819  
H441     H      0.190480000000     0.672710000000     0.965160000000     0.052292   
H442     H      0.107830000000     0.705240000000     0.875060000000     0.0492648  
H443     H      0.203480000000     0.622080000000     0.959330000000     0.0357859  
H444     H      0.150750000000     0.742650000000     0.919430000000     0.0294781  
H445     H      0.136790000000     0.679440000000     0.990090000000     0.049928   
H446     H      0.146270000000     0.680000000000     0.838570000000     0.0508033  
H447     H      0.123040000000     0.754130000000     0.887510000000     0.0354774  
H448     H      0.121020000000     0.621010000000     0.954940000000     0.0291421  
H449     H      0.400490000000     0.265640000000     0.246310000000     0.0430147  
H450     H      0.318520000000     0.347020000000     0.229850000000     0.0263965  
H451     H      0.377450000000     0.288660000000     0.133220000000     0.0261113  
H452     H      0.365420000000     0.331600000000     0.170480000000     0.0433649  
H453     H      0.327320000000     0.307840000000     0.184440000000     0.0433619  
H454     H      0.377500000000     0.295360000000     0.289340000000     0.0430193  
H455     H      0.436200000000     0.253460000000     0.195210000000     0.0336935  
H456     H      0.287070000000     0.325670000000     0.224750000000     0.035064   
H457     H      0.401110000000     0.335060000000     0.186490000000     0.0525496  
H458     H      0.346250000000     0.273410000000     0.282840000000     0.0500378  
H459     H      0.400740000000     0.317430000000     0.120380000000     0.0347822  
H460     H      0.349630000000     0.338740000000     0.295120000000     0.0294745  
H461     H      0.423100000000     0.295440000000     0.233960000000     0.0501038  
H462     H      0.315540000000     0.282210000000     0.218430000000     0.0526255  
H463     H      0.335800000000     0.312490000000     0.328050000000     0.0338652  
H464     H      0.399750000000     0.247920000000     0.180860000000     0.0294854  
H465     H      0.565080000000     0.338990000000     0.227540000000     0.04289    
H466     H      0.634030000000     0.255000000000     0.275720000000     0.026305   
H467     H      0.585980000000     0.273010000000     0.149910000000     0.0269493  
H468     H      0.592220000000     0.249840000000     0.213420000000     0.043259   
H469     H      0.633080000000     0.270260000000     0.207460000000     0.0431693  
H470     H      0.590180000000     0.334190000000     0.279710000000     0.0425992  
H471     H      0.530570000000     0.332220000000     0.174060000000     0.0348526  
H472     H      0.669230000000     0.263820000000     0.259550000000     0.0352742  
H473     H      0.556510000000     0.257680000000     0.225820000000     0.0519239  
H474     H      0.625280000000     0.341590000000     0.261300000000     0.0501203  
H475     H      0.559660000000     0.245880000000     0.157460000000     0.0358748  
H476     H      0.607050000000     0.295150000000     0.319390000000     0.0285788  
H477     H      0.539980000000     0.310720000000     0.236930000000     0.0497977  
H478     H      0.650710000000     0.302450000000     0.219310000000     0.0520279  
H479     H      0.626870000000     0.327150000000     0.329330000000     0.0355539  
H480     H      0.567260000000     0.328790000000     0.159900000000     0.0296621  
H481     H      0.643980000000     0.231580000000     0.957170000000     0.0421587  
H482     H      0.574470000000     0.304710000000     0.999410000000     0.030967   
H483     H      0.618650000000     0.244940000000     0.844990000000     0.0263849  
H484     H      0.596330000000     0.284670000000     0.875850000000     0.0426756  
H485     H      0.579570000000     0.305070000000     0.930080000000     0.0431989  
H486     H      0.606490000000     0.251210000000     0.006130000000     0.0493392  
H487     H      0.681160000000     0.224780000000     0.907560000000     0.0353464  
H488     H      0.540490000000     0.308270000000     0.976420000000     0.0341749  
H489     H      0.629750000000     0.299810000000     0.891380000000     0.0512271  
H490     H      0.600290000000     0.221250000000     0.974260000000     0.043208   
H491     H      0.634260000000     0.277500000000     0.827820000000     0.0358289  
H492     H      0.562030000000     0.226510000000     0.022730000000     0.0338132  
H493     H      0.660740000000     0.264320000000     0.944280000000     0.0512153  
H494     H      0.554800000000     0.275820000000     0.924000000000     0.0500348  
H495     H      0.549480000000     0.228260000000     0.974150000000     0.0308193  
H496     H      0.646480000000     0.213530000000     0.891840000000     0.0263394  
H497     H      0.325100000000     0.235700000000     0.966110000000     0.0426699  
H498     H      0.429680000000     0.273410000000     0.936290000000     0.0262311  
H499     H      0.334390000000     0.318490000000     0.925040000000     0.0270444  
H500     H      0.373620000000     0.292100000000     0.889070000000     0.042908   
H501     H      0.389820000000     0.308580000000     0.941450000000     0.0434866  
H502     H      0.368280000000     0.222000000000     0.981070000000     0.0427177  
H503     H      0.280180000000     0.257450000000     0.940870000000     0.0362121  
H504     H      0.437570000000     0.302370000000     0.968290000000     0.0353223  
H505     H      0.347790000000     0.268220000000     0.871150000000     0.052238   
H506     H      0.370910000000     0.249600000000     0.017120000000     0.0498317  
H507     H      0.329190000000     0.317930000000     0.873980000000     0.0362     
H508     H      0.417880000000     0.223310000000     0.966170000000     0.0281254  
H509     H      0.321940000000     0.232640000000     0.914900000000     0.049603   
H510     H      0.387440000000     0.302210000000     0.991400000000     0.0537608  
H511     H      0.414430000000     0.220950000000     0.017550000000     0.0356085  
H512     H      0.302130000000     0.281910000000     0.967320000000     0.0285828  
N1       N      0.057150000000     0.354970000000     0.648940000000    -0.175413   
N2       N      0.165980000000     0.322040000000     0.772770000000    -0.175241   
N3       N      0.036600000000     0.364450000000     0.489110000000    -0.174958   
N4       N      0.165250000000     0.344320000000     0.399500000000    -0.17423    
N5       N      0.919500000000     0.345090000000     0.511580000000    -0.17509    
N6       N      0.787990000000     0.308970000000     0.433680000000    -0.17491    
N7       N      0.805740000000     0.290890000000     0.753680000000    -0.174238   
N8       N      0.936720000000     0.335090000000     0.673760000000    -0.174487   
N9       N      0.722540000000     0.201530000000     0.747610000000    -0.175387   
N10      N      0.690360000000     0.087070000000     0.639200000000    -0.175457   
N11      N      0.669810000000     0.098450000000     0.485750000000    -0.174192   
N12      N      0.702310000000     0.224510000000     0.412350000000    -0.174491   
N13      N      0.640480000000     0.979380000000     0.472030000000    -0.174702   
N14      N      0.645570000000     0.853600000000     0.374910000000    -0.174153   
N15      N      0.661980000000     0.967110000000     0.635360000000    -0.174468   
N16      N      0.642650000000     0.842480000000     0.748750000000    -0.175053   
N17      N      0.976150000000     0.766520000000     0.495660000000    -0.174364   
N18      N      0.106390000000     0.795750000000     0.407710000000    -0.174006   
N19      N      0.113180000000     0.796940000000     0.729530000000    -0.175082   
N20      N      0.977300000000     0.767860000000     0.659950000000    -0.175035   
N21      N      0.730750000000     0.767640000000     0.765340000000    -0.174702   
N22      N      0.852940000000     0.764150000000     0.657030000000    -0.174757   
N23      N      0.853920000000     0.763680000000     0.498740000000    -0.174765   
N24      N      0.736320000000     0.771920000000     0.378900000000    -0.175528   
N25      N      0.259690000000     0.138400000000     0.513470000000    -0.17482    
N26      N      0.247790000000     0.258050000000     0.397140000000    -0.174456   
N27      N      0.267030000000     0.115120000000     0.674900000000    -0.175245   
N28      N      0.250090000000     0.234730000000     0.780190000000    -0.174609   
N29      N      0.203440000000     0.876000000000     0.740160000000    -0.17455    
N30      N      0.244220000000     0.001200000000     0.651620000000    -0.174611   
N31      N      0.188830000000     0.882140000000     0.426390000000    -0.174941   
N32      N      0.235830000000     0.017440000000     0.488920000000    -0.174789   
N33      N      0.735670000000     0.377680000000     0.315730000000    -0.174927   
N34      N      0.724370000000     0.468310000000     0.160340000000    -0.174248   
N35      N      0.680950000000     0.703030000000     0.272610000000    -0.174727   
N36      N      0.698590000000     0.587890000000     0.151590000000    -0.174869   
N37      N      0.694960000000     0.584160000000     0.993620000000    -0.174699   
N38      N      0.663640000000     0.698910000000     0.873020000000    -0.174892   
N39      N      0.738460000000     0.342140000000     0.878330000000    -0.174786   
N40      N      0.722300000000     0.462320000000     0.996420000000    -0.175538   
N41      N      0.457820000000     0.799260000000     0.172300000000    -0.174914   
N42      N      0.587990000000     0.783950000000     0.262930000000    -0.174551   
N43      N      0.254360000000     0.835110000000     0.301530000000    -0.17475    
N44      N      0.338680000000     0.797610000000     0.139530000000    -0.174605   
N45      N      0.362450000000     0.771900000000     0.983430000000    -0.175973   
N46      N      0.247990000000     0.815150000000     0.870470000000    -0.175867   
N47      N      0.574130000000     0.778770000000     0.858460000000    -0.174631   
N48      N      0.481190000000     0.773510000000     0.013490000000    -0.17441    
N49      N      0.178960000000     0.632160000000     0.147110000000    -0.175264   
N50      N      0.171830000000     0.748890000000     0.281270000000    -0.1753     
N51      N      0.223330000000     0.406530000000     0.285020000000    -0.174449   
N52      N      0.202580000000     0.511070000000     0.149400000000    -0.174144   
N53      N      0.183520000000     0.507360000000     0.987430000000    -0.174869   
N54      N      0.218150000000     0.377840000000     0.902000000000    -0.174575   
N55      N      0.159980000000     0.735360000000     0.860600000000    -0.174412   
N56      N      0.160850000000     0.623640000000     0.983160000000    -0.174715   
N57      N      0.309890000000     0.321310000000     0.278440000000    -0.174698   
N58      N      0.419360000000     0.283610000000     0.154470000000    -0.174793   
N59      N      0.649390000000     0.294070000000     0.298220000000    -0.175005   
N60      N      0.544760000000     0.289620000000     0.160600000000    -0.174926   
N61      N      0.548550000000     0.267850000000     0.003360000000    -0.175218   
N62      N      0.660340000000     0.252020000000     0.866000000000    -0.175081   
N63      N      0.428250000000     0.261650000000     0.995090000000    -0.175218   
N64      N      0.301910000000     0.289790000000     0.907370000000    -0.174762   
O1       O      0.455190000000     0.245440000000     0.045780000000    -0.398614   
O2       O      0.516420000000     0.259290000000     0.125910000000    -0.401257   
O3       O      0.455140000000     0.256980000000     0.127300000000    -0.39718    
O4       O      0.516630000000     0.247990000000     0.045730000000    -0.397828   
O5       O      0.516970000000     0.295270000000     0.037490000000    -0.400933   
O6       O      0.449870000000     0.302590000000     0.110000000000    -0.400889   
O7       O      0.511100000000     0.306290000000     0.118290000000    -0.399914   
O8       O      0.456760000000     0.291590000000     0.030030000000    -0.402892   
O9       O      0.148010000000     0.594050000000     0.032930000000    -0.398874   
O10      O      0.169240000000     0.535170000000     0.113640000000    -0.40053    
O11      O      0.157690000000     0.595340000000     0.114560000000    -0.400168   
O12      O      0.159560000000     0.533690000000     0.032730000000    -0.400496   
O13      O      0.205960000000     0.541520000000     0.023860000000    -0.3999     
O14      O      0.203060000000     0.606040000000     0.101720000000    -0.399142   
O15      O      0.215190000000     0.545750000000     0.105750000000    -0.398612   
O16      O      0.194110000000     0.600790000000     0.020290000000    -0.401307   
O17      O      0.434620000000     0.768930000000     0.130940000000    -0.399264   
O18      O      0.383530000000     0.755800000000     0.038550000000    -0.399944   
O19      O      0.444430000000     0.755760000000     0.050400000000    -0.39636    
O20      O      0.374760000000     0.768830000000     0.117720000000    -0.399767   
O21      O      0.374210000000     0.814600000000     0.100040000000    -0.398026   
O22      O      0.447890000000     0.802750000000     0.041110000000    -0.401468   
O23      O      0.389120000000     0.801430000000     0.021410000000    -0.400769   
O24      O      0.434210000000     0.815730000000     0.118960000000    -0.400272   
O25      O      0.694510000000     0.491140000000     0.118400000000    -0.403154   
O26      O      0.679560000000     0.549100000000     0.034550000000    -0.399905   
O27      O      0.693100000000     0.488010000000     0.036520000000    -0.398366   
O28      O      0.681590000000     0.550390000000     0.116060000000    -0.401935   
O29      O      0.727670000000     0.561590000000     0.111890000000    -0.399554   
O30      O      0.739400000000     0.498850000000     0.033210000000    -0.401147   
O31      O      0.726200000000     0.557870000000     0.029620000000    -0.398835   
O32      O      0.740920000000     0.501150000000     0.116160000000    -0.396306   
O33      O      0.266800000000     0.038000000000     0.531630000000    -0.401206   
O34      O      0.282890000000     0.090150000000     0.622190000000    -0.398684   
O35      O      0.271180000000     0.030170000000     0.612690000000    -0.399184   
O36      O      0.278320000000     0.097680000000     0.539960000000    -0.398817   
O37      O      0.232770000000     0.108660000000     0.551060000000    -0.399587   
O38      O      0.224340000000     0.037690000000     0.616800000000    -0.40112    
O39      O      0.236160000000     0.095740000000     0.631240000000    -0.402072   
O40      O      0.220660000000     0.048970000000     0.535370000000    -0.398908   
O41      O      0.885030000000     0.740420000000     0.539410000000    -0.397231   
O42      O      0.948330000000     0.742740000000     0.619060000000    -0.400445   
O43      O      0.887360000000     0.741020000000     0.622210000000    -0.397617   
O44      O      0.946830000000     0.742080000000     0.537130000000    -0.39792    
O45      O      0.946270000000     0.789720000000     0.537550000000    -0.400379   
O46      O      0.883380000000     0.788410000000     0.617430000000    -0.400532   
O47      O      0.944980000000     0.790230000000     0.620550000000    -0.401435   
O48      O      0.885750000000     0.787970000000     0.536250000000    -0.404399   
O49      O      0.641510000000     0.005660000000     0.605220000000    -0.39777    
O50      O      0.643950000000     0.068430000000     0.524660000000    -0.398838   
O51      O      0.629940000000     0.008120000000     0.523700000000    -0.397715   
O52      O      0.655310000000     0.065590000000     0.603950000000    -0.401207   
O53      O      0.700240000000     0.050830000000     0.596960000000    -0.398463   
O54      O      0.675380000000     0.001330000000     0.507270000000    -0.400327   
O55      O      0.690270000000     0.059980000000     0.516090000000    -0.39945    
O56      O      0.685090000000     0.991800000000     0.587740000000    -0.399655   
O57      O      0.955870000000     0.323780000000     0.544920000000    -0.400937   
O58      O      0.026970000000     0.329290000000     0.610580000000    -0.399676   
O59      O      0.967110000000     0.319010000000     0.626420000000    -0.397355   
O60      O      0.014380000000     0.333770000000     0.530620000000    -0.400771   
O61      O      0.010500000000     0.380670000000     0.540620000000    -0.398041   
O62      O      0.957480000000     0.365540000000     0.630500000000    -0.401083   
O63      O      0.017280000000     0.375130000000     0.622630000000    -0.399832   
O64      O      0.950010000000     0.370940000000     0.549620000000    -0.399913   
O65      O      0.245850000000     0.380430000000     0.332090000000    -0.397241   
O66      O      0.253380000000     0.306510000000     0.392440000000    -0.398343   
O67      O      0.286900000000     0.334420000000     0.333920000000    -0.397154   
O68      O      0.213140000000     0.352030000000     0.390470000000    -0.398164   
O69      O      0.189760000000     0.324280000000     0.349050000000    -0.399255   
O70      O      0.261520000000     0.317380000000     0.284770000000    -0.399648   
O71      O      0.234730000000     0.282650000000     0.342920000000    -0.397998   
O72      O      0.216640000000     0.358250000000     0.291310000000    -0.400308   
O73      O      0.671160000000     0.309010000000     0.353490000000    -0.403217   
O74      O      0.740540000000     0.316270000000     0.421570000000    -0.401636   
O75      O      0.714570000000     0.350780000000     0.363130000000    -0.398699   
O76      O      0.696820000000     0.273450000000     0.411220000000    -0.396505   
O77      O      0.724090000000     0.252390000000     0.367040000000    -0.402909   
O78      O      0.741120000000     0.329070000000     0.318640000000    -0.40036    
O79      O      0.767110000000     0.294470000000     0.377250000000    -0.400014   
O80      O      0.697140000000     0.286450000000     0.309210000000    -0.398868   
O81      O      0.726490000000     0.320810000000     0.821410000000    -0.401079   
O82      O      0.714600000000     0.249000000000     0.758470000000    -0.400851   
O83      O      0.684490000000     0.276180000000     0.818800000000    -0.401247   
O84      O      0.757210000000     0.293970000000     0.760680000000    -0.40008    
O85      O      0.782450000000     0.270580000000     0.804970000000    -0.398064   
O86      O      0.708950000000     0.248500000000     0.859190000000    -0.398713   
O87      O      0.743190000000     0.224800000000     0.798160000000    -0.399608   
O88      O      0.747940000000     0.294820000000     0.866760000000    -0.398241   
O89      O      0.635740000000     0.793270000000     0.269330000000    -0.401857   
O90      O      0.710010000000     0.787100000000     0.327540000000    -0.403657   
O91      O      0.681750000000     0.752150000000     0.272720000000    -0.399261   
O92      O      0.664750000000     0.827750000000     0.325100000000    -0.400712   
O93      O      0.641590000000     0.804720000000     0.371680000000    -0.399404   
O94      O      0.659210000000     0.729190000000     0.319940000000    -0.401397   
O95      O      0.687960000000     0.764110000000     0.375210000000    -0.397516   
O96      O      0.613450000000     0.769270000000     0.315800000000    -0.39909    
O97      O      0.664630000000     0.747780000000     0.868550000000    -0.39699    
O98      O      0.656700000000     0.820240000000     0.804550000000    -0.395988   
O99      O      0.621490000000     0.789850000000     0.857250000000    -0.402136   
O100     O      0.701300000000     0.778190000000     0.815850000000    -0.398171   
O101     O      0.683100000000     0.757660000000     0.763340000000    -0.39851    
O102     O      0.604520000000     0.759880000000     0.812970000000    -0.395225   
O103     O      0.636090000000     0.794580000000     0.758110000000    -0.400617   
O104     O      0.652880000000     0.721980000000     0.816960000000    -0.400511   
O105     O      0.171900000000     0.862590000000     0.370540000000    -0.400702   
O106     O      0.164830000000     0.796090000000     0.296470000000    -0.398977   
O107     O      0.131090000000     0.818530000000     0.359500000000    -0.397729   
O108     O      0.205900000000     0.840600000000     0.308260000000    -0.397509   
O109     O      0.228950000000     0.810650000000     0.347200000000    -0.400773   
O110     O      0.154910000000     0.791590000000     0.401470000000    -0.399728   
O111     O      0.186210000000     0.767510000000     0.338990000000    -0.399647   
O112     O      0.197780000000     0.835430000000     0.409990000000    -0.398374   
O113     O      0.183990000000     0.757380000000     0.811340000000    -0.401744   
O114     O      0.204490000000     0.827590000000     0.749540000000    -0.402174   
O115     O      0.228570000000     0.799390000000     0.814020000000    -0.40046    
O116     O      0.159340000000     0.786100000000     0.746190000000    -0.398852   
O117     O      0.134100000000     0.815450000000     0.783470000000    -0.402615   
O118     O      0.200990000000     0.822350000000     0.856210000000    -0.401253   
O119     O      0.180060000000     0.854650000000     0.790730000000    -0.39866    
O120     O      0.154910000000     0.783310000000     0.848100000000    -0.399164   
O121     O      0.281300000000     0.311500000000     0.855310000000    -0.402941   
O122     O      0.213700000000     0.325360000000     0.785550000000    -0.400966   
O123     O      0.238740000000     0.354890000000     0.850600000000    -0.40031    
O124     O      0.256690000000     0.282560000000     0.791260000000    -0.401821   
O125     O      0.226840000000     0.258330000000     0.828940000000    -0.399925   
O126     O      0.212490000000     0.329750000000     0.891950000000    -0.400717   
O127     O      0.185230000000     0.303740000000     0.827960000000    -0.399763   
O128     O      0.254230000000     0.284710000000     0.893670000000    -0.398981   


