data_structure

_audit_creation_method RASPA-1.0
_audit_creation_date 2023-5-25
_audit_author_name 'Poobodin Mano'

_cell_length_a    29.2195
_cell_length_b    27.3519
_cell_length_c    29.0811
_cell_angle_alpha 90
_cell_angle_beta  90.0004
_cell_angle_gamma 90.0037
_cell_volume      23241.9

_symmetry_cell_setting          triclinic
_symmetry_space_group_name_Hall 'P 1'
_symmetry_space_group_name_H-M  'P 1'
_symmetry_Int_Tables_number     1

_symmetry_equiv_pos_as_xyz 'x,y,z'

loop_
_atom_site_label
_atom_site_type_symbol
_atom_site_fract_x
_atom_site_fract_y
_atom_site_fract_z
_atom_site_charge
C1       C      0.984690000000     0.011880000000     0.099850000000     0.474545   
C2       C      0.976900000000     0.002840000000     0.925580000000     0.478029   
C3       C      0.893520000000     0.006330000000     0.016590000000     0.474762   
C4       C      0.067300000000     0.012190000000     0.008820000000     0.477197   
C5       C      0.986430000000     0.005610000000     0.600910000000     0.472859   
C6       C      0.986670000000     0.009730000000     0.426320000000     0.477853   
C7       C      0.899200000000     0.009180000000     0.515660000000     0.480977   
C8       C      0.072960000000     0.012550000000     0.516080000000     0.474086   
C9       C      0.992880000000     0.507640000000     0.089000000000     0.479723   
C10      C      0.979470000000     0.512890000000     0.914960000000     0.474899   
C11      C      0.898570000000     0.509230000000     0.006490000000     0.481216   
C12      C      0.071560000000     0.503630000000     0.992440000000     0.47512    
C13      C      0.978820000000     0.514760000000     0.589470000000     0.476438   
C14      C      0.993590000000     0.506970000000     0.415510000000     0.474858   
C15      C      0.899230000000     0.505970000000     0.494830000000     0.472455   
C16      C      0.072910000000     0.507160000000     0.508900000000     0.477181   
C17      C      0.503970000000     0.008570000000     0.090670000000     0.474495   
C18      C      0.456510000000     0.008580000000     0.922270000000     0.474491   
C19      C      0.397160000000     0.006440000000     0.031660000000     0.473354   
C20      C      0.564650000000     0.009480000000     0.984420000000     0.47519    
C21      C      0.478020000000     0.005960000000     0.590000000000     0.473438   
C22      C      0.504040000000     0.008340000000     0.417060000000     0.476619   
C23      C      0.403790000000     0.013910000000     0.490120000000     0.474499   
C24      C      0.575360000000     0.009340000000     0.517320000000     0.477643   
C25      C      0.492490000000     0.511070000000     0.099500000000     0.477616   
C26      C      0.480270000000     0.507530000000     0.925060000000     0.477634   
C27      C      0.400130000000     0.502660000000     0.017110000000     0.477251   
C28      C      0.573100000000     0.512630000000     0.004590000000     0.475846   
C29      C      0.460690000000     0.507680000000     0.596260000000     0.475491   
C30      C      0.511580000000     0.513560000000     0.429120000000     0.47505    
C31      C      0.403600000000     0.510440000000     0.487410000000     0.474256   
C32      C      0.570540000000     0.504950000000     0.537470000000     0.473952   
C33      C      0.433020000000     0.458960000000     0.662630000000     0.0157293  
C34      C      0.466770000000     0.550560000000     0.851330000000     0.0176477  
C35      C      0.487950000000     0.460430000000     0.852610000000     0.0591691  
C36      C      0.430770000000     0.539850000000     0.814660000000    -0.105666   
C37      C      0.456510000000     0.453180000000     0.709470000000    -0.101531   
C38      C      0.453610000000     0.450710000000     0.813460000000    -0.116749   
C39      C      0.451730000000     0.499090000000     0.738710000000     0.0159353  
C40      C      0.445720000000     0.496840000000     0.785440000000     0.0238429  
C41      C      0.437620000000     0.550170000000     0.668070000000     0.0163344  
C42      C      0.463060000000     0.546640000000     0.713850000000    -0.101749   
C43      C      0.503060000000     0.468230000000     0.173950000000     0.0155658  
C44      C      0.536610000000     0.561960000000     0.361560000000     0.0182457  
C45      C      0.531300000000     0.469800000000     0.357200000000     0.0616974  
C46      C      0.514350000000     0.566820000000     0.313990000000    -0.105489   
C47      C      0.540040000000     0.477870000000     0.209980000000    -0.101928   
C48      C      0.507350000000     0.473660000000     0.310490000000    -0.11727    
C49      C      0.526960000000     0.522080000000     0.238680000000     0.0157517  
C50      C      0.519790000000     0.520630000000     0.285340000000     0.0241303  
C51      C      0.485380000000     0.558650000000     0.171730000000     0.014431   
C52      C      0.520740000000     0.567970000000     0.209810000000    -0.101807   
C53      C      0.455700000000     0.867620000000     0.533180000000    -0.00224572 
C54      C      0.527360000000     0.652190000000     0.493160000000     0.00401911 
C55      C      0.446120000000     0.654420000000     0.513230000000     0.0457935  
C56      C      0.534660000000     0.705660000000     0.507250000000    -0.0954531  
C57      C      0.446780000000     0.813850000000     0.522190000000    -0.0895313  
C58      C      0.448720000000     0.706800000000     0.531540000000    -0.107403   
C59      C      0.490470000000     0.784970000000     0.512370000000     0.0110124  
C60      C      0.490350000000     0.734670000000     0.513750000000     0.0194498  
C61      C      0.532080000000     0.867170000000     0.503060000000    -0.00248248 
C62      C      0.531260000000     0.812430000000     0.492050000000    -0.0895621  
C63      C      0.513180000000     0.366200000000     0.542830000000    -0.00110762 
C64      C      0.468120000000     0.153650000000     0.466790000000     0.00461535 
C65      C      0.487680000000     0.153090000000     0.548490000000     0.0452923  
C66      C      0.483180000000     0.206840000000     0.460450000000    -0.0954032  
C67      C      0.499750000000     0.312900000000     0.550420000000    -0.0896953  
C68      C      0.505220000000     0.205880000000     0.547620000000    -0.106874   
C69      C      0.490860000000     0.285100000000     0.505700000000     0.0115117  
C70      C      0.489730000000     0.234810000000     0.505470000000     0.0194785  
C71      C      0.488300000000     0.368150000000     0.464270000000     0.000373397
C72      C      0.474580000000     0.314070000000     0.463760000000    -0.0903334  
C73      C      0.440040000000     0.865140000000     0.992890000000    -0.000793266
C74      C      0.519260000000     0.652880000000     0.033750000000     0.00592756 
C75      C      0.462260000000     0.652890000000     0.972030000000     0.0491136  
C76      C      0.507830000000     0.705420000000     0.047960000000    -0.0957832  
C77      C      0.446980000000     0.811570000000     0.979740000000    -0.0895124  
C78      C      0.444950000000     0.704160000000     0.984100000000    -0.107974   
C79      C      0.478070000000     0.783780000000     0.012950000000     0.0110201  
C80      C      0.479220000000     0.733490000000     0.012650000000     0.0196642  
C81      C      0.502800000000     0.866910000000     0.045920000000    -0.000857795
C82      C      0.514110000000     0.812680000000     0.039670000000    -0.0900177  
C83      C      0.512050000000     0.150560000000     0.977500000000    -0.00223208 
C84      C      0.463680000000     0.364460000000     0.048650000000     0.00287562 
C85      C      0.493770000000     0.364100000000     0.970280000000     0.044944   
C86      C      0.476760000000     0.310860000000     0.056750000000    -0.0949801  
C87      C      0.501550000000     0.204490000000     0.968760000000    -0.0890268  
C88      C      0.510870000000     0.311360000000     0.973870000000    -0.106897   
C89      C      0.487550000000     0.232430000000     0.012090000000     0.0108821  
C90      C      0.488490000000     0.282720000000     0.012870000000     0.0191407  
C91      C      0.476920000000     0.149690000000     0.051990000000    -0.000965536
C92      C      0.464080000000     0.203890000000     0.050630000000    -0.0900564  
C93      C      0.439580000000     0.054390000000     0.850540000000     0.0164749  
C94      C      0.478240000000     0.959180000000     0.662820000000     0.0176267  
C95      C      0.470540000000     0.051780000000     0.663030000000     0.0600895  
C96      C      0.445190000000     0.955770000000     0.703720000000    -0.105491   
C97      C      0.465460000000     0.048950000000     0.805130000000    -0.101906   
C98      C      0.436400000000     0.047750000000     0.702840000000    -0.116843   
C99      C      0.450140000000     0.003460000000     0.778910000000     0.0154044  
C100     C      0.445640000000     0.002640000000     0.731820000000     0.0235868  
C101     C      0.426400000000     0.964110000000     0.854350000000     0.0164369  
C102     C      0.449550000000     0.956730000000     0.807520000000    -0.101093   
C103     C      0.527970000000     0.054270000000     0.160310000000     0.0156815  
C104     C      0.509850000000     0.962750000000     0.343850000000     0.0171999  
C105     C      0.512940000000     0.056560000000     0.345790000000     0.0602962  
C106     C      0.543660000000     0.963740000000     0.303700000000    -0.104885   
C107     C      0.503280000000     0.056550000000     0.206720000000    -0.102807   
C108     C      0.545420000000     0.054670000000     0.304220000000    -0.115463   
C109     C      0.513250000000     0.010250000000     0.233890000000     0.0197674  
C110     C      0.535280000000     0.009540000000     0.275710000000     0.0252326  
C111     C      0.522750000000     0.962130000000     0.161580000000     0.0159668  
C112     C      0.498110000000     0.964680000000     0.208030000000    -0.102782   
C113     C      0.640100000000     0.457640000000     0.558490000000     0.0175472  
C114     C      0.826180000000     0.550910000000     0.484900000000     0.0187849  
C115     C      0.827380000000     0.459120000000     0.483690000000     0.0601544  
C116     C      0.784760000000     0.551700000000     0.517080000000    -0.104193   
C117     C      0.684120000000     0.456090000000     0.529860000000    -0.100681   
C118     C      0.784760000000     0.456740000000     0.514690000000    -0.115483   
C119     C      0.711520000000     0.503890000000     0.529680000000     0.0150743  
C120     C      0.757220000000     0.504200000000     0.517310000000     0.0221009  
C121     C      0.641060000000     0.548070000000     0.562670000000     0.0169596  
C122     C      0.684600000000     0.551770000000     0.533590000000    -0.100355   
C123     C      0.334880000000     0.467670000000     0.457360000000     0.0160244  
C124     C      0.145840000000     0.553510000000     0.511510000000     0.0182659  
C125     C      0.145460000000     0.461410000000     0.519430000000     0.0594537  
C126     C      0.185020000000     0.550300000000     0.476900000000    -0.105578   
C127     C      0.289870000000     0.459780000000     0.483460000000    -0.100985   
C128     C      0.187310000000     0.457880000000     0.487330000000    -0.116391   
C129     C      0.261510000000     0.506500000000     0.486630000000     0.0153845  
C130     C      0.214450000000     0.505440000000     0.486010000000     0.0231803  
C131     C      0.332330000000     0.557470000000     0.472690000000     0.0158512  
C132     C      0.288440000000     0.551870000000     0.500810000000    -0.101426   
C133     C      0.643010000000     0.562690000000     0.993710000000     0.015689   
C134     C      0.823200000000     0.467720000000     0.007920000000     0.0172728  
C135     C      0.829630000000     0.560650000000     0.015810000000     0.0602328  
C136     C      0.781080000000     0.475190000000     0.977550000000    -0.10597    
C137     C      0.686120000000     0.566040000000     0.023660000000    -0.102777   
C138     C      0.785840000000     0.566050000000     0.986960000000    -0.117885   
C139     C      0.715190000000     0.520800000000     0.015750000000     0.017243   
C140     C      0.756220000000     0.521010000000     0.992790000000     0.0263132  
C141     C      0.647630000000     0.470080000000     0.997390000000     0.0158999  
C142     C      0.689620000000     0.474570000000     0.028410000000    -0.102466   
C143     C      0.146740000000     0.545460000000     0.987190000000     0.016169   
C144     C      0.330080000000     0.453170000000     0.028920000000     0.0172159  
C145     C      0.325510000000     0.545220000000     0.016750000000     0.0610859  
C146     C      0.287310000000     0.446010000000     0.998970000000    -0.10564    
C147     C      0.185830000000     0.537920000000     0.021180000000    -0.102228   
C148     C      0.284360000000     0.537470000000     0.985130000000    -0.117151   
C149     C      0.212230000000     0.492050000000     0.008380000000     0.0158824  
C150     C      0.258130000000     0.491940000000     0.998830000000     0.0248756  
C151     C      0.141000000000     0.454490000000     0.975650000000     0.0154649  
C152     C      0.182710000000     0.446290000000     0.006900000000    -0.102588   
C153     C      0.978120000000     0.564260000000     0.660650000000     0.0145687  
C154     C      0.972670000000     0.469960000000     0.840450000000     0.0171805  
C155     C      0.971170000000     0.563590000000     0.845010000000     0.0593207  
C156     C      0.999390000000     0.474190000000     0.795470000000    -0.106641   
C157     C      0.947630000000     0.565300000000     0.703540000000    -0.102713   
C158     C      0.995910000000     0.565370000000     0.798360000000    -0.117619   
C159     C      0.957560000000     0.520150000000     0.731920000000     0.0182655  
C160     C      0.984390000000     0.520100000000     0.770680000000     0.0262664  
C161     C      0.976090000000     0.470700000000     0.663610000000     0.0149279  
C162     C      0.944880000000     0.474420000000     0.705670000000    -0.10275    
C163     C      0.008080000000     0.458240000000     0.345120000000     0.0152658  
C164     C      0.995760000000     0.550490000000     0.163790000000     0.0170433  
C165     C      0.993350000000     0.456700000000     0.159090000000     0.0593482  
C166     C      0.026190000000     0.545720000000     0.206310000000    -0.106024   
C167     C      0.980040000000     0.453930000000     0.300800000000    -0.102934   
C168     C      0.022480000000     0.454730000000     0.203080000000    -0.117155   
C169     C      0.988170000000     0.499290000000     0.271960000000     0.0182867  
C170     C      0.013160000000     0.499690000000     0.231960000000     0.0256748  
C171     C      0.000700000000     0.550630000000     0.341130000000     0.0155015  
C172     C      0.972780000000     0.545090000000     0.296910000000    -0.102814   
C173     C      0.012590000000     0.651160000000     0.534950000000    -0.00210514 
C174     C      0.955190000000     0.866780000000     0.477650000000     0.00397344 
C175     C      0.029930000000     0.864300000000     0.515280000000     0.0463672  
C176     C      0.944590000000     0.813310000000     0.489090000000    -0.0948661  
C177     C      0.025000000000     0.704050000000     0.523990000000    -0.0893891  
C178     C      0.023960000000     0.811090000000     0.530760000000    -0.10691    
C179     C      0.984710000000     0.733490000000     0.505250000000     0.0112032  
C180     C      0.985990000000     0.783810000000     0.505270000000     0.0191459  
C181     C      0.943170000000     0.651720000000     0.491000000000     0.000234131
C182     C      0.947510000000     0.706080000000     0.478600000000    -0.0906367  
C183     C      0.021630000000     0.151150000000     0.491120000000     0.000113584
C184     C      0.952400000000     0.366250000000     0.537410000000     0.00648244 
C185     C      0.996380000000     0.362620000000     0.465990000000     0.0455773  
C186     C      0.965120000000     0.313830000000     0.551080000000    -0.0959603  
C187     C      0.011040000000     0.203680000000     0.477150000000    -0.08957    
C188     C      0.013370000000     0.310590000000     0.475280000000    -0.106803   
C189     C      0.987970000000     0.233420000000     0.515160000000     0.0115216  
C190     C      0.985960000000     0.283580000000     0.512110000000     0.0196546  
C191     C      0.973360000000     0.152300000000     0.557770000000     0.00227045 
C192     C      0.959970000000     0.206150000000     0.551550000000    -0.0909855  
C193     C      0.646240000000     0.961090000000     0.529060000000     0.0158271  
C194     C      0.825620000000     0.053820000000     0.517750000000     0.0173143  
C195     C      0.828200000000     0.960100000000     0.513240000000     0.0602209  
C196     C      0.784120000000     0.049480000000     0.549470000000    -0.106361   
C197     C      0.689180000000     0.961220000000     0.498900000000    -0.102306   
C198     C      0.785010000000     0.958590000000     0.543380000000    -0.116901   
C199     C      0.717300000000     0.006090000000     0.510780000000     0.0174787  
C200     C      0.757190000000     0.004590000000     0.535680000000     0.0255294  
C201     C      0.648150000000     0.053830000000     0.530770000000     0.0147094  
C202     C      0.691100000000     0.052740000000     0.500630000000    -0.102139   
C203     C      0.330030000000     0.969880000000     0.481780000000     0.0165978  
C204     C      0.144120000000     0.059920000000     0.528770000000     0.0175755  
C205     C      0.146970000000     0.968360000000     0.515100000000     0.0607336  
C206     C      0.186640000000     0.067070000000     0.498530000000    -0.105868   
C207     C      0.289350000000     0.975300000000     0.514300000000    -0.10177    
C208     C      0.188330000000     0.975590000000     0.483510000000    -0.116517   
C209     C      0.262050000000     0.020880000000     0.502240000000     0.0155719  
C210     C      0.215390000000     0.020820000000     0.496880000000     0.0235765  
C211     C      0.333580000000     0.061060000000     0.471720000000     0.0156867  
C212     C      0.290530000000     0.067510000000     0.501420000000    -0.101817   
C213     C      0.008880000000     0.866510000000     0.979670000000    -0.00201078 
C214     C      0.959530000000     0.650150000000     0.041900000000     0.00439278 
C215     C      0.030030000000     0.653110000000     0.996840000000     0.0475603  
C216     C      0.947350000000     0.703430000000     0.031700000000    -0.0949469  
C217     C      0.023030000000     0.813880000000     0.989950000000    -0.0885798  
C218     C      0.022610000000     0.706640000000     0.982820000000    -0.107204   
C219     C      0.984800000000     0.783690000000     0.011820000000     0.0107439  
C220     C      0.986760000000     0.733400000000     0.011720000000     0.0194834  
C221     C      0.942630000000     0.864280000000     0.028340000000    -0.000577021
C222     C      0.949510000000     0.810500000000     0.041420000000    -0.090181   
C223     C      0.012340000000     0.150450000000     0.980340000000    -0.000366984
C224     C      0.948250000000     0.366190000000     0.031280000000     0.0052679  
C225     C      0.988580000000     0.363180000000     0.957650000000     0.0474464  
C226     C      0.960360000000     0.313300000000     0.043420000000    -0.0951074  
C227     C      0.000530000000     0.202870000000     0.966470000000    -0.0894111  
C228     C      0.004450000000     0.310250000000     0.964940000000    -0.1069     
C229     C      0.980140000000     0.233020000000     0.005710000000     0.0109479  
C230     C      0.978710000000     0.283260000000     0.003070000000     0.0190588  
C231     C      0.968080000000     0.152600000000     0.049780000000     0.00017005 
C232     C      0.953560000000     0.205970000000     0.043240000000    -0.090502   
C233     C      0.819810000000     0.051270000000     0.016850000000     0.0156492  
C234     C      0.634040000000     0.964140000000     0.959980000000     0.0176508  
C235     C      0.637010000000     0.055310000000     0.973300000000     0.0616483  
C236     C      0.678180000000     0.956840000000     0.987680000000    -0.104054   
C237     C      0.783430000000     0.046900000000     0.979450000000    -0.101441   
C238     C      0.680340000000     0.049130000000     0.002420000000    -0.117326   
C239     C      0.753970000000     0.001990000000     0.988070000000     0.0151104  
C240     C      0.706980000000     0.003210000000     0.989520000000     0.0232214  
C241     C      0.821030000000     0.959880000000     0.025970000000     0.0152871  
C242     C      0.781490000000     0.954750000000     0.991410000000    -0.100713   
C243     C      0.329370000000     0.051820000000     0.060360000000     0.0161544  
C244     C      0.140570000000     0.966690000000     0.007670000000     0.0186962  
C245     C      0.139580000000     0.058770000000     0.999330000000     0.0604864  
C246     C      0.178830000000     0.970410000000     0.043090000000    -0.1054     
C247     C      0.284630000000     0.059410000000     0.033720000000    -0.101485   
C248     C      0.181770000000     0.062500000000     0.031100000000    -0.116847   
C249     C      0.255650000000     0.013020000000     0.032080000000     0.0151256  
C250     C      0.208620000000     0.014730000000     0.033240000000     0.0228918  
C251     C      0.325340000000     0.961460000000     0.048810000000     0.0171028  
C252     C      0.282070000000     0.966660000000     0.019690000000    -0.101708   
C253     C      0.982780000000     0.955420000000     0.671520000000     0.0149513  
C254     C      0.977530000000     0.046750000000     0.851510000000     0.0172187  
C255     C      0.981110000000     0.952790000000     0.854990000000     0.0598652  
C256     C      0.950510000000     0.042180000000     0.806780000000    -0.106947   
C257     C      0.010000000000     0.954860000000     0.716530000000    -0.102906   
C258     C      0.956400000000     0.951400000000     0.808280000000    -0.117424   
C259     C      0.996420000000     0.999130000000     0.744530000000     0.019128   
C260     C      0.967240000000     0.997410000000     0.781490000000     0.0264814  
C261     C      0.981590000000     0.048930000000     0.675360000000     0.0153072  
C262     C      0.009320000000     0.045820000000     0.719880000000    -0.103285   
C263     C      0.992790000000     0.061340000000     0.170790000000     0.014718   
C264     C      0.985550000000     0.966870000000     0.351400000000     0.0176662  
C265     C      0.981510000000     0.060410000000     0.356210000000     0.0603969  
C266     C      0.014730000000     0.972130000000     0.308040000000    -0.105071   
C267     C      0.964210000000     0.063120000000     0.214980000000    -0.103053   
C268     C      0.009390000000     0.063110000000     0.311450000000    -0.115955   
C269     C      0.974410000000     0.017860000000     0.243300000000     0.0202877  
C270     C      0.000220000000     0.017960000000     0.282760000000     0.0261952  
C271     C      0.990580000000     0.968280000000     0.174220000000     0.015077   
C272     C      0.961190000000     0.971880000000     0.217590000000    -0.102625   
Cu1      Cu     0.979320000000     0.060040000000     0.010380000000     1.20131    
Cu2      Cu     0.981560000000     0.956610000000     0.014950000000     1.20486    
Cu3      Cu     0.984790000000     0.060790000000     0.515420000000     1.20976    
Cu4      Cu     0.987030000000     0.957470000000     0.511740000000     1.20476    
Cu5      Cu     0.987400000000     0.559940000000     0.004010000000     1.21244    
Cu6      Cu     0.983120000000     0.456720000000     0.000130000000     1.20766    
Cu7      Cu     0.985930000000     0.560490000000     0.500550000000     1.19433    
Cu8      Cu     0.986330000000     0.457120000000     0.504610000000     1.20683    
Cu9      Cu     0.480380000000     0.059900000000     0.006760000000     1.19918    
Cu10     Cu     0.480470000000     0.956510000000     0.005910000000     1.19435    
Cu11     Cu     0.490610000000     0.061100000000     0.503810000000     1.20687    
Cu12     Cu     0.488670000000     0.957620000000     0.502580000000     1.19993    
Cu13     Cu     0.483700000000     0.559980000000     0.011120000000     1.21222    
Cu14     Cu     0.489670000000     0.456650000000     0.013640000000     1.20198    
Cu15     Cu     0.487760000000     0.560920000000     0.515160000000     1.19475    
Cu16     Cu     0.486030000000     0.457660000000     0.510800000000     1.20141    
H1       H      0.439900000000     0.421040000000     0.725640000000     0.0424161  
H2       H      0.498490000000     0.563840000000     0.834310000000     0.0288683  
H3       H      0.400370000000     0.553640000000     0.675290000000     0.0253921  
H4       H      0.456220000000     0.580340000000     0.733480000000     0.0427919  
H5       H      0.422250000000     0.573520000000     0.795570000000     0.0430982  
H6       H      0.466810000000     0.419340000000     0.793380000000     0.0485071  
H7       H      0.441590000000     0.426710000000     0.641030000000     0.0344966  
H8       H      0.453530000000     0.580560000000     0.873340000000     0.0360479  
H9       H      0.500460000000     0.546800000000     0.706780000000     0.0521161  
H10      H      0.420410000000     0.439050000000     0.828570000000     0.053144   
H11      H      0.448720000000     0.583960000000     0.650000000000     0.0353814  
H12      H      0.493440000000     0.445040000000     0.704430000000     0.0502478  
H13      H      0.398420000000     0.529550000000     0.832350000000     0.0510852  
H14      H      0.487150000000     0.427890000000     0.875320000000     0.0298134  
H15      H      0.395330000000     0.458570000000     0.668150000000     0.0258752  
H16      H      0.547000000000     0.494960000000     0.793580000000     0.0345087  
H17      H      0.547670000000     0.444210000000     0.229450000000     0.0429489  
H18      H      0.574390000000     0.563860000000     0.357270000000     0.0258328  
H19      H      0.451040000000     0.555460000000     0.187980000000     0.0276967  
H20      H      0.508350000000     0.600110000000     0.229220000000     0.0418949  
H21      H      0.531300000000     0.598800000000     0.297940000000     0.0426478  
H22      H      0.513280000000     0.439490000000     0.291250000000     0.0481681  
H23      H      0.513860000000     0.436650000000     0.152480000000     0.0340469  
H24      H      0.526530000000     0.594180000000     0.382520000000     0.0332256  
H25      H      0.554080000000     0.577990000000     0.194000000000     0.0486474  
H26      H      0.469810000000     0.474600000000     0.316700000000     0.0541777  
H27      H      0.484450000000     0.591170000000     0.148830000000     0.0355529  
H28      H      0.572490000000     0.486480000000     0.191690000000     0.0509507  
H29      H      0.477300000000     0.575010000000     0.317990000000     0.0511632  
H30      H      0.516340000000     0.437520000000     0.374900000000     0.0261711  
H31      H      0.470820000000     0.457890000000     0.191830000000     0.0260899  
H32      H      0.609400000000     0.485550000000     0.315960000000     0.034022   
H33      H      0.428450000000     0.798680000000     0.552460000000     0.0391635  
H34      H      0.520870000000     0.649660000000     0.455620000000     0.0285067  
H35      H      0.546120000000     0.873380000000     0.538180000000     0.0276147  
H36      H      0.564030000000     0.797510000000     0.505350000000     0.0388527  
H37      H      0.556490000000     0.721800000000     0.479970000000     0.0399175  
H38      H      0.416040000000     0.724920000000     0.522090000000     0.0451912  
H39      H      0.422640000000     0.887560000000     0.532690000000     0.0274414  
H40      H      0.559540000000     0.631850000000     0.499740000000     0.0269252  
H41      H      0.530590000000     0.807660000000     0.454090000000     0.0456943  
H42      H      0.450700000000     0.705680000000     0.569700000000     0.0504288  
H43      H      0.555370000000     0.885210000000     0.478120000000     0.0291739  
H44      H      0.423990000000     0.811440000000     0.491670000000     0.0469568  
H45      H      0.554020000000     0.706650000000     0.540140000000     0.0469057  
H46      H      0.419930000000     0.635020000000     0.534010000000     0.020625   
H47      H      0.470280000000     0.871120000000     0.568400000000     0.0293993  
H48      H      0.445140000000     0.691840000000     0.430300000000     0.0305866  
H49      H      0.528280000000     0.296080000000     0.570080000000     0.039602   
H50      H      0.430740000000     0.151670000000     0.473430000000     0.0280342  
H51      H      0.524460000000     0.372520000000     0.452840000000     0.0279682  
H52      H      0.488930000000     0.298540000000     0.431550000000     0.0397384  
H53      H      0.456600000000     0.224200000000     0.438610000000     0.0403049  
H54      H      0.493940000000     0.223380000000     0.580170000000     0.0458502  
H55      H      0.511260000000     0.385800000000     0.576190000000     0.0277399  
H56      H      0.474170000000     0.134110000000     0.433980000000     0.0276365  
H57      H      0.436630000000     0.311570000000     0.462100000000     0.0460822  
H58      H      0.543270000000     0.205210000000     0.547680000000     0.0507067  
H59      H      0.466270000000     0.388070000000     0.439450000000     0.028644   
H60      H      0.468230000000     0.311570000000     0.571810000000     0.0469206  
H61      H      0.516140000000     0.207430000000     0.441350000000     0.0475783  
H62      H      0.508670000000     0.133220000000     0.574240000000     0.0229026  
H63      H      0.549200000000     0.368480000000     0.530480000000     0.0291519  
H64      H      0.404700000000     0.188850000000     0.550910000000     0.0303531  
H65      H      0.412320000000     0.794890000000     0.978660000000     0.0394512  
H66      H      0.548820000000     0.652430000000     0.009760000000     0.0270661  
H67      H      0.478340000000     0.871800000000     0.074940000000     0.0272966  
H68      H      0.518480000000     0.797610000000     0.074870000000     0.0389663  
H69      H      0.541270000000     0.723410000000     0.054280000000     0.0400055  
H70      H      0.436350000000     0.722530000000     0.951170000000     0.0453214  
H71      H      0.424080000000     0.884540000000     0.963460000000     0.0287316  
H72      H      0.530130000000     0.632410000000     0.064840000000     0.0260385  
H73      H      0.547250000000     0.809510000000     0.021120000000     0.0456131  
H74      H      0.412810000000     0.700750000000     0.004310000000     0.0512892  
H75      H      0.534880000000     0.886460000000     0.054920000000     0.027807   
H76      H      0.462210000000     0.809800000000     0.944740000000     0.0467992  
H77      H      0.488540000000     0.704590000000     0.080900000000     0.0475129  
H78      H      0.432660000000     0.631740000000     0.958700000000     0.0200435  
H79      H      0.416130000000     0.868010000000     0.022600000000     0.0281539  
H80      H      0.531510000000     0.695820000000     0.931480000000     0.0306838  
H81      H      0.533130000000     0.220180000000     0.953450000000     0.040291   
H82      H      0.427470000000     0.367180000000     0.037350000000     0.0282884  
H83      H      0.511280000000     0.145080000000     0.067980000000     0.02836    
H84      H      0.473380000000     0.218860000000     0.084880000000     0.0390625  
H85      H      0.447180000000     0.294250000000     0.074900000000     0.0400467  
H86      H      0.504900000000     0.294120000000     0.939820000000     0.0457694  
H87      H      0.513670000000     0.131220000000     0.943970000000     0.029911   
H88      H      0.465920000000     0.383960000000     0.082000000000     0.0277285  
H89      H      0.426430000000     0.207190000000     0.046100000000     0.0460267  
H90      H      0.548420000000     0.311800000000     0.980040000000     0.0508852  
H91      H      0.451700000000     0.130140000000     0.073870000000     0.0283873  
H92      H      0.473370000000     0.207260000000     0.943200000000     0.0469876  
H93      H      0.506930000000     0.309460000000     0.080000000000     0.047007   
H94      H      0.518070000000     0.383560000000     0.947360000000     0.0229163  
H95      H      0.546110000000     0.146730000000     0.994300000000     0.0299925  
H96      H      0.411570000000     0.328430000000     0.957580000000     0.0303835  
H97      H      0.462160000000     0.083750000000     0.786370000000     0.0440161  
H98      H      0.513870000000     0.956780000000     0.676070000000     0.0272734  
H99      H      0.388900000000     0.967730000000     0.848590000000     0.0249731  
H100     H      0.429760000000     0.927120000000     0.790740000000     0.041872   
H101     H      0.456080000000     0.923070000000     0.723270000000     0.0427313  
H102     H      0.434770000000     0.082790000000     0.721500000000     0.048446   
H103     H      0.453570000000     0.086440000000     0.869390000000     0.0345372  
H104     H      0.472700000000     0.926580000000     0.640700000000     0.03274    
H105     H      0.485300000000     0.944000000000     0.812680000000     0.0507108  
H106     H      0.401630000000     0.043540000000     0.687790000000     0.0533827  
H107     H      0.431720000000     0.930720000000     0.875480000000     0.034119   
H108     H      0.502540000000     0.044900000000     0.812850000000     0.0527679  
H109     H      0.409890000000     0.949130000000     0.690910000000     0.0492285  
H110     H      0.458560000000     0.082240000000     0.640910000000     0.0293455  
H111     H      0.402980000000     0.062010000000     0.842770000000     0.0260313  
H112     H      0.540130000000     0.037560000000     0.717720000000     0.0345904  
H113     H      0.512490000000     0.091220000000     0.223560000000     0.0442005  
H114     H      0.474720000000     0.957240000000     0.330060000000     0.0300972  
H115     H      0.559870000000     0.956180000000     0.167940000000     0.0252005  
H116     H      0.502810000000     0.929700000000     0.226190000000     0.0427255  
H117     H      0.542490000000     0.929000000000     0.284510000000     0.042582   
H118     H      0.545150000000     0.089870000000     0.285780000000     0.047724   
H119     H      0.518800000000     0.087380000000     0.140190000000     0.0326257  
H120     H      0.518030000000     0.930530000000     0.365670000000     0.0351343  
H121     H      0.460680000000     0.967370000000     0.201600000000     0.0521045  
H122     H      0.581050000000     0.051750000000     0.317450000000     0.0511636  
H123     H      0.509730000000     0.929900000000     0.142360000000     0.031948   
H124     H      0.465800000000     0.058720000000     0.200420000000     0.0524421  
H125     H      0.578950000000     0.965060000000     0.318010000000     0.049649   
H126     H      0.525660000000     0.086250000000     0.368590000000     0.0256604  
H127     H      0.565500000000     0.055520000000     0.166620000000     0.0256928  
H128     H      0.430710000000     0.084840000000     0.365770000000     0.0370119  
H129     H      0.704380000000     0.425640000000     0.544700000000     0.0419382  
H130     H      0.813770000000     0.553990000000     0.448880000000     0.0263139  
H131     H      0.651210000000     0.546280000000     0.599520000000     0.0247522  
H132     H      0.705320000000     0.580780000000     0.550260000000     0.0414189  
H133     H      0.763920000000     0.583180000000     0.505320000000     0.0422004  
H134     H      0.763980000000     0.425650000000     0.501920000000     0.0480447  
H135     H      0.619070000000     0.424940000000     0.550240000000     0.0324079  
H136     H      0.847120000000     0.584030000000     0.491820000000     0.0316988  
H137     H      0.675270000000     0.564110000000     0.498400000000     0.0499729  
H138     H      0.795920000000     0.447490000000     0.550190000000     0.0517485  
H139     H      0.620600000000     0.581960000000     0.557990000000     0.0333254  
H140     H      0.675270000000     0.446700000000     0.493750000000     0.0517232  
H141     H      0.796600000000     0.559190000000     0.552720000000     0.0500086  
H142     H      0.848790000000     0.426890000000     0.492610000000     0.0283515  
H143     H      0.649640000000     0.455090000000     0.595470000000     0.0240198  
H144     H      0.772110000000     0.476240000000     0.415150000000     0.0339568  
H145     H      0.271770000000     0.430570000000     0.464240000000     0.0421517  
H146     H      0.160460000000     0.560420000000     0.546210000000     0.026436   
H147     H      0.322900000000     0.565920000000     0.436490000000     0.026799   
H148     H      0.269720000000     0.586720000000     0.498410000000     0.0423362  
H149     H      0.203150000000     0.585600000000     0.476580000000     0.0432646  
H150     H      0.207650000000     0.426120000000     0.499260000000     0.0481593  
H151     H      0.356060000000     0.434060000000     0.460290000000     0.0354465  
H152     H      0.124250000000     0.585580000000     0.502570000000     0.0336385  
H153     H      0.297900000000     0.547680000000     0.537630000000     0.0515394  
H154     H      0.175420000000     0.449560000000     0.451870000000     0.05204    
H155     H      0.351820000000     0.589040000000     0.486500000000     0.0355971  
H156     H      0.297310000000     0.446380000000     0.518760000000     0.0510973  
H157     H      0.170090000000     0.546520000000     0.441910000000     0.0523656  
H158     H      0.124050000000     0.428640000000     0.512460000000     0.0301973  
H159     H      0.326680000000     0.472670000000     0.420280000000     0.0252486  
H160     H      0.201040000000     0.484870000000     0.586120000000     0.0336775  
H161     H      0.702840000000     0.601330000000     0.016610000000     0.0427548  
H162     H      0.811770000000     0.459200000000     0.043490000000     0.026715   
H163     H      0.659250000000     0.464780000000     0.961300000000     0.027917   
H164     H      0.710170000000     0.440670000000     0.027750000000     0.0427512  
H165     H      0.759960000000     0.441700000000     0.976360000000     0.0439079  
H166     H      0.769610000000     0.601330000000     0.995240000000     0.0486704  
H167     H      0.620540000000     0.594260000000     0.002000000000     0.0329832  
H168     H      0.842260000000     0.435340000000     0.995000000000     0.0350083  
H169     H      0.677740000000     0.477740000000     0.064630000000     0.0508369  
H170     H      0.795740000000     0.568930000000     0.950130000000     0.0539951  
H171     H      0.628320000000     0.436810000000     0.007620000000     0.0365788  
H172     H      0.675710000000     0.567290000000     0.060420000000     0.049633   
H173     H      0.792860000000     0.480390000000     0.941500000000     0.0523538  
H174     H      0.852510000000     0.591220000000     0.005510000000     0.0285322  
H175     H      0.653280000000     0.566280000000     0.957030000000     0.027979   
H176     H      0.787140000000     0.534840000000     0.090950000000     0.0351748  
H177     H      0.206380000000     0.571650000000     0.024230000000     0.0446978  
H178     H      0.319460000000     0.452620000000     0.065630000000     0.026247   
H179     H      0.153130000000     0.455720000000     0.939400000000     0.0258457  
H180     H      0.200540000000     0.413830000000     0.992960000000     0.0423654  
H181     H      0.269550000000     0.413660000000     0.013230000000     0.0425561  
H182     H      0.263970000000     0.571370000000     0.982410000000     0.0483292  
H183     H      0.127460000000     0.578760000000     0.997070000000     0.0365193  
H184     H      0.352960000000     0.421190000000     0.023680000000     0.0335612  
H185     H      0.170970000000     0.437480000000     0.042300000000     0.0500206  
H186     H      0.297530000000     0.531500000000     0.949690000000     0.0534721  
H187     H      0.117850000000     0.422420000000     0.978780000000     0.0356421  
H188     H      0.170920000000     0.532370000000     0.055980000000     0.0527405  
H189     H      0.297770000000     0.437400000000     0.963120000000     0.0502346  
H190     H      0.345280000000     0.576300000000     0.002150000000     0.0288847  
H191     H      0.161400000000     0.551790000000     0.952400000000     0.0258639  
H192     H      0.276080000000     0.531680000000     0.090590000000     0.0341432  
H193     H      0.951600000000     0.600540000000     0.721480000000     0.0433598  
H194     H      0.936040000000     0.462890000000     0.832480000000     0.0286055  
H195     H      0.011700000000     0.463560000000     0.675340000000     0.0287864  
H196     H      0.945390000000     0.440270000000     0.725930000000     0.0422742  
H197     H      0.996690000000     0.440020000000     0.775470000000     0.0438318  
H198     H      0.989200000000     0.600680000000     0.781370000000     0.0485562  
H199     H      0.967970000000     0.595240000000     0.638090000000     0.0332261  
H200     H      0.985930000000     0.437630000000     0.859330000000     0.0358093  
H201     H      0.908890000000     0.477620000000     0.693550000000     0.0494333  
H202     H      0.033410000000     0.565460000000     0.804920000000     0.052545   
H203     H      0.965010000000     0.438580000000     0.643020000000     0.0334992  
H204     H      0.911220000000     0.564480000000     0.692380000000     0.0495824  
H205     H      0.036420000000     0.477370000000     0.803860000000     0.0512451  
H206     H      0.985860000000     0.593480000000     0.866320000000     0.0297898  
H207     H      0.014180000000     0.570670000000     0.671300000000     0.027547   
H208     H      0.890780000000     0.542450000000     0.811570000000     0.0347529  
H209     H      0.988170000000     0.418780000000     0.284240000000     0.0440861  
H210     H      0.960100000000     0.558200000000     0.175010000000     0.0270428  
H211     H      0.036920000000     0.558250000000     0.331810000000     0.0270789  
H212     H      0.973900000000     0.579070000000     0.276440000000     0.0427301  
H213     H      0.025540000000     0.579600000000     0.226980000000     0.0434378  
H214     H      0.017610000000     0.419180000000     0.220240000000     0.0481724  
H215     H      0.000560000000     0.426070000000     0.367070000000     0.0365136  
H216     H      0.007620000000     0.582680000000     0.143720000000     0.0347241  
H217     H      0.936130000000     0.540770000000     0.306460000000     0.0514051  
H218     H      0.059190000000     0.455000000000     0.192940000000     0.0516841  
H219     H      0.987550000000     0.582880000000     0.360260000000     0.0360849  
H220     H      0.943120000000     0.451850000000     0.309910000000     0.0531355  
H221     H      0.062330000000     0.542470000000     0.194680000000     0.0507784  
H222     H      0.006120000000     0.427130000000     0.136190000000     0.027675   
H223     H      0.045050000000     0.456590000000     0.336150000000     0.0263924  
H224     H      0.915600000000     0.478600000000     0.197890000000     0.0359311  
H225     H      0.038020000000     0.720030000000     0.556570000000     0.0394543  
H226     H      0.970130000000     0.869820000000     0.442650000000     0.0292163  
H227     H      0.922770000000     0.647160000000     0.523060000000     0.025512   
H228     H      0.913320000000     0.722490000000     0.484940000000     0.0393937  
H229     H      0.929520000000     0.797360000000     0.457410000000     0.0407158  
H230     H      0.057660000000     0.792820000000     0.526580000000     0.0458359  
H231     H      0.044580000000     0.630530000000     0.541600000000     0.0290982  
H232     H      0.922400000000     0.887120000000     0.476740000000     0.0305093  
H233     H      0.955290000000     0.709210000000     0.441290000000     0.0461708  
H234     H      0.015420000000     0.810820000000     0.568030000000     0.0503938  
H235     H      0.924450000000     0.633030000000     0.462810000000     0.0277962  
H236     H      0.053020000000     0.704510000000     0.498120000000     0.0470474  
H237     H      0.918250000000     0.812230000000     0.516670000000     0.0473073  
H238     H      0.050640000000     0.883000000000     0.542030000000     0.0217453  
H239     H      0.991530000000     0.649570000000     0.566840000000     0.0294608  
H240     H      0.050280000000     0.830150000000     0.433790000000     0.0305529  
H241     H      0.044260000000     0.220290000000     0.467070000000     0.0391056  
H242     H      0.918950000000     0.366860000000     0.519310000000     0.0279994  
H243     H      0.004150000000     0.149140000000     0.580150000000     0.0255332  
H244     H      0.963830000000     0.223720000000     0.585770000000     0.0394386  
H245     H      0.933210000000     0.296780000000     0.564210000000     0.0403863  
H246     H      0.012970000000     0.290890000000     0.441890000000     0.0451278  
H247     H      0.030490000000     0.129930000000     0.459840000000     0.027084   
H248     H      0.947850000000     0.387940000000     0.569270000000     0.0262544  
H249     H      0.923300000000     0.207920000000     0.541470000000     0.046357   
H250     H      0.049540000000     0.312520000000     0.487050000000     0.0504339  
H251     H      0.944830000000     0.132980000000     0.575270000000     0.0276607  
H252     H      0.988140000000     0.203190000000     0.446610000000     0.0469622  
H253     H      0.990290000000     0.315280000000     0.579720000000     0.0476212  
H254     H      0.024090000000     0.381670000000     0.446990000000     0.0207723  
H255     H      0.051860000000     0.150190000000     0.514430000000     0.0279924  
H256     H      0.918690000000     0.324120000000     0.439830000000     0.0314611  
H257     H      0.706840000000     0.925780000000     0.501880000000     0.0433391  
H258     H      0.813590000000     0.062110000000     0.482320000000     0.0268835  
H259     H      0.658790000000     0.057020000000     0.567370000000     0.027579   
H260     H      0.710630000000     0.087030000000     0.504390000000     0.0426739  
H261     H      0.764650000000     0.084030000000     0.550240000000     0.04339    
H262     H      0.766780000000     0.923650000000     0.538680000000     0.0478954  
H263     H      0.624850000000     0.929150000000     0.519320000000     0.032277   
H264     H      0.846410000000     0.085530000000     0.529390000000     0.0352637  
H265     H      0.680250000000     0.052250000000     0.463970000000     0.0506466  
H266     H      0.796010000000     0.957800000000     0.580000000000     0.0521305  
H267     H      0.628080000000     0.087070000000     0.522070000000     0.0368748  
H268     H      0.678480000000     0.963590000000     0.462260000000     0.0506408  
H269     H      0.796590000000     0.044770000000     0.585340000000     0.0506464  
H270     H      0.850380000000     0.929430000000     0.524780000000     0.0275231  
H271     H      0.656750000000     0.955950000000     0.565510000000     0.0266444  
H272     H      0.788430000000     0.985400000000     0.436560000000     0.0356298  
H273     H      0.269900000000     0.940760000000     0.515010000000     0.0435415  
H274     H      0.155170000000     0.059070000000     0.565350000000     0.0267999  
H275     H      0.322870000000     0.059930000000     0.435020000000     0.0250832  
H276     H      0.272090000000     0.099050000000     0.486360000000     0.041859   
H277     H      0.205030000000     0.098650000000     0.513580000000     0.0427112  
H278     H      0.207990000000     0.941240000000     0.481110000000     0.0485708  
H279     H      0.349960000000     0.937030000000     0.492030000000     0.0335303  
H280     H      0.121880000000     0.092590000000     0.524720000000     0.03275    
H281     H      0.300610000000     0.077080000000     0.537160000000     0.0502763  
H282     H      0.175290000000     0.981610000000     0.448030000000     0.0540382  
H283     H      0.355690000000     0.093800000000     0.476070000000     0.0340142  
H284     H      0.302650000000     0.979840000000     0.549880000000     0.0515799  
H285     H      0.175980000000     0.076920000000     0.463040000000     0.04916    
H286     H      0.126680000000     0.937930000000     0.500330000000     0.0300728  
H287     H      0.316930000000     0.963710000000     0.446340000000     0.026476   
H288     H      0.198980000000     0.978200000000     0.587620000000     0.0341108  
H289     H      0.033960000000     0.797960000000     0.956580000000     0.0400741  
H290     H      0.978150000000     0.647280000000     0.075070000000     0.0292796  
H291     H      0.920100000000     0.867290000000     0.997590000000     0.0268399  
H292     H      0.915290000000     0.793110000000     0.038620000000     0.0393768  
H293     H      0.935290000000     0.719090000000     0.064780000000     0.0406759  
H294     H      0.056430000000     0.725120000000     0.984470000000     0.0455993  
H295     H      0.039940000000     0.887940000000     0.970990000000     0.0307038  
H296     H      0.927210000000     0.629460000000     0.046310000000     0.0301812  
H297     H      0.960800000000     0.808520000000     0.077890000000     0.0461149  
H298     H      0.011040000000     0.707510000000     0.946400000000     0.0508981  
H299     H      0.925190000000     0.883020000000     0.057330000000     0.0279927  
H300     H      0.052880000000     0.814180000000     0.013660000000     0.046591   
H301     H      0.918480000000     0.704270000000     0.006810000000     0.0479373  
H302     H      0.047800000000     0.634780000000     0.967820000000     0.0194886  
H303     H      0.985810000000     0.867480000000     0.949200000000     0.0306471  
H304     H      0.058970000000     0.685870000000     0.076140000000     0.0306972  
H305     H      0.032840000000     0.219430000000     0.953740000000     0.0398678  
H306     H      0.914030000000     0.368020000000     0.014760000000     0.0289848  
H307     H      0.000150000000     0.150560000000     0.070390000000     0.0264988  
H308     H      0.958170000000     0.223890000000     0.077200000000     0.0395409  
H309     H      0.928600000000     0.296900000000     0.057610000000     0.0410342  
H310     H      0.001260000000     0.291110000000     0.931400000000     0.0453202  
H311     H      0.019210000000     0.128850000000     0.948780000000     0.0300099  
H312     H      0.945680000000     0.387430000000     0.063670000000     0.0293038  
H313     H      0.916590000000     0.206980000000     0.034240000000     0.0463995  
H314     H      0.041350000000     0.310710000000     0.974310000000     0.0500762  
H315     H      0.940820000000     0.133400000000     0.069340000000     0.0275257  
H316     H      0.975480000000     0.201900000000     0.937700000000     0.0466709  
H317     H      0.986760000000     0.313530000000     0.070950000000     0.047608   
H318     H      0.015700000000     0.382150000000     0.937730000000     0.0199932  
H319     H      0.044070000000     0.149990000000     0.001560000000     0.0289851  
H320     H      0.908880000000     0.327600000000     0.934250000000     0.0305552  
H321     H      0.765060000000     0.081910000000     0.976190000000     0.0432858  
H322     H      0.643180000000     0.966300000000     0.922930000000     0.0271646  
H323     H      0.806250000000     0.960460000000     0.061230000000     0.0254152  
H324     H      0.761070000000     0.923160000000     0.003500000000     0.0413252  
H325     H      0.696310000000     0.926350000000     0.970380000000     0.0426889  
H326     H      0.699710000000     0.083690000000     0.001560000000     0.0482356  
H327     H      0.841170000000     0.084010000000     0.009660000000     0.0355854  
H328     H      0.612310000000     0.931080000000     0.964160000000     0.0354059  
H329     H      0.795480000000     0.945700000000     0.956910000000     0.0493621  
H330     H      0.669660000000     0.044910000000     0.038920000000     0.0540528  
H331     H      0.843120000000     0.926900000000     0.023530000000     0.0325367  
H332     H      0.800980000000     0.041930000000     0.945830000000     0.0518648  
H333     H      0.669570000000     0.945420000000     0.023320000000     0.04988    
H334     H      0.617540000000     0.086280000000     0.988450000000     0.0270027  
H335     H      0.802510000000     0.057130000000     0.050480000000     0.0259567  
H336     H      0.688390000000     0.047540000000     0.900050000000     0.0340749  
H337     H      0.266950000000     0.089720000000     0.051750000000     0.0421645  
H338     H      0.155960000000     0.959880000000     0.973290000000     0.027355   
H339     H      0.315070000000     0.955340000000     0.085200000000     0.025529   
H340     H      0.262850000000     0.932180000000     0.022670000000     0.042142   
H341     H      0.196620000000     0.934980000000     0.044890000000     0.043248   
H342     H      0.202260000000     0.093870000000     0.018550000000     0.048047   
H343     H      0.351160000000     0.084840000000     0.056260000000     0.0344485  
H344     H      0.119130000000     0.934380000000     0.016240000000     0.0343927  
H345     H      0.292270000000     0.969460000000     0.982950000000     0.0518322  
H346     H      0.170170000000     0.071640000000     0.066480000000     0.0517413  
H347     H      0.344560000000     0.928680000000     0.037110000000     0.0324782  
H348     H      0.292450000000     0.071200000000     0.998000000000     0.0512366  
H349     H      0.163140000000     0.975420000000     0.077610000000     0.0526376  
H350     H      0.117940000000     0.091290000000     0.006600000000     0.0268195  
H351     H      0.320890000000     0.048650000000     0.097550000000     0.0248209  
H352     H      0.194460000000     0.035600000000     0.932070000000     0.0340571  
H353     H      0.005860000000     0.919240000000     0.733770000000     0.0441397  
H354     H      0.013750000000     0.055650000000     0.843270000000     0.0277819  
H355     H      0.944920000000     0.054580000000     0.684150000000     0.0265848  
H356     H      0.005700000000     0.079620000000     0.740340000000     0.0424752  
H357     H      0.951720000000     0.076630000000     0.787010000000     0.0432334  
H358     H      0.963400000000     0.916590000000     0.790460000000     0.0483581  
H359     H      0.995410000000     0.924980000000     0.649590000000     0.0363059  
H360     H      0.963350000000     0.078200000000     0.871120000000     0.0342962  
H361     H      0.046280000000     0.044400000000     0.710800000000     0.0504988  
H362     H      0.918900000000     0.950500000000     0.814900000000     0.0516224  
H363     H      0.993240000000     0.081680000000     0.655970000000     0.0331312  
H364     H      0.047090000000     0.957240000000     0.708190000000     0.0512703  
H365     H      0.913710000000     0.037350000000     0.815460000000     0.050342   
H366     H      0.966310000000     0.922920000000     0.876250000000     0.0265287  
H367     H      0.946220000000     0.947820000000     0.679390000000     0.0277099  
H368     H      0.062220000000     0.976030000000     0.825040000000     0.0362897  
H369     H      0.969940000000     0.098410000000     0.232290000000     0.0439465  
H370     H      0.949620000000     0.959060000000     0.341150000000     0.0293073  
H371     H      0.026830000000     0.962420000000     0.184500000000     0.0273363  
H372     H      0.962930000000     0.937700000000     0.237720000000     0.0429716  
H373     H      0.014020000000     0.938170000000     0.287510000000     0.0433333  
H374     H      0.003440000000     0.098530000000     0.294380000000     0.0480204  
H375     H      0.982750000000     0.092790000000     0.148800000000     0.0324653  
H376     H      0.998160000000     0.934660000000     0.370980000000     0.034485   
H377     H      0.924700000000     0.974760000000     0.207020000000     0.0513985  
H378     H      0.046350000000     0.063660000000     0.320620000000     0.0509746  
H379     H      0.979470000000     0.935520000000     0.154550000000     0.0358373  
H380     H      0.927340000000     0.063030000000     0.205480000000     0.0512694  
H381     H      0.051130000000     0.976070000000     0.318640000000     0.0506276  
H382     H      0.993790000000     0.090800000000     0.378420000000     0.0255971  
H383     H      0.029450000000     0.066290000000     0.179980000000     0.0266316  
H384     H      0.899630000000     0.078390000000     0.385680000000     0.0394672  
N1       N      0.477130000000     0.505910000000     0.878060000000    -0.191744   
N2       N      0.445620000000     0.505650000000     0.640790000000    -0.188762   
N3       N      0.524890000000     0.515170000000     0.383960000000    -0.192389   
N4       N      0.495020000000     0.512840000000     0.146490000000    -0.189      
N5       N      0.490190000000     0.629640000000     0.519500000000    -0.239667   
N6       N      0.486500000000     0.888800000000     0.498960000000    -0.233755   
N7       N      0.494240000000     0.129890000000     0.503550000000    -0.240466   
N8       N      0.481920000000     0.389030000000     0.510060000000    -0.235227   
N9       N      0.479430000000     0.628570000000     0.013500000000    -0.242331   
N10      N      0.484050000000     0.887750000000     0.003650000000    -0.234336   
N11      N      0.494510000000     0.387830000000     0.015510000000    -0.239639   
N12      N      0.476220000000     0.128600000000     0.005800000000    -0.23486    
N13      N      0.473340000000     0.005460000000     0.636940000000    -0.192086   
N14      N      0.442860000000     0.008820000000     0.877210000000    -0.188719   
N15      N      0.510950000000     0.009050000000     0.370450000000    -0.19282    
N16      N      0.516770000000     0.008360000000     0.135970000000    -0.189379   
N17      N      0.852530000000     0.505360000000     0.489910000000    -0.191433   
N18      N      0.615460000000     0.503660000000     0.550950000000    -0.188484   
N19      N      0.119710000000     0.507310000000     0.512170000000    -0.192267   
N20      N      0.358710000000     0.511680000000     0.473900000000    -0.188052   
N21      N      0.851870000000     0.512400000000     0.008760000000    -0.193119   
N22      N      0.619640000000     0.515140000000     0.000010000000    -0.188577   
N23      N      0.353400000000     0.500160000000     0.019520000000    -0.192699   
N24      N      0.117920000000     0.501230000000     0.986230000000    -0.188452   
N25      N      0.976280000000     0.515400000000     0.868020000000    -0.191709   
N26      N      0.975470000000     0.516590000000     0.636390000000    -0.188674   
N27      N      0.996040000000     0.505040000000     0.135930000000    -0.193121   
N28      N      0.998840000000     0.505170000000     0.368750000000    -0.187926   
N29      N      0.985340000000     0.888580000000     0.512330000000    -0.2406     
N30      N      0.988250000000     0.629240000000     0.496170000000    -0.233729   
N31      N      0.988490000000     0.388470000000     0.509380000000    -0.240682   
N32      N      0.981660000000     0.129390000000     0.513190000000    -0.236793   
N33      N      0.852400000000     0.007720000000     0.516950000000    -0.193894   
N34      N      0.621560000000     0.008170000000     0.524810000000    -0.189073   
N35      N      0.119810000000     0.013810000000     0.518290000000    -0.192316   
N36      N      0.357570000000     0.015020000000     0.482600000000    -0.188959   
N37      N      0.985960000000     0.628770000000     0.004110000000    -0.241415   
N38      N      0.986570000000     0.888110000000     0.019820000000    -0.23518    
N39      N      0.983530000000     0.387980000000     0.002000000000    -0.241883   
N40      N      0.974150000000     0.128510000000     0.005370000000    -0.235277   
N41      N      0.610200000000     0.009570000000     0.973270000000    -0.19255    
N42      N      0.846720000000     0.005710000000     0.018810000000    -0.189007   
N43      N      0.114130000000     0.012680000000     0.006490000000    -0.192914   
N44      N      0.352470000000     0.006610000000     0.045720000000    -0.189026   
N45      N      0.976180000000     0.000730000000     0.878540000000    -0.193294   
N46      N      0.985950000000     0.003440000000     0.647930000000    -0.187989   
N47      N      0.986510000000     0.012250000000     0.379290000000    -0.193265   
N48      N      0.987470000000     0.013850000000     0.146810000000    -0.188719   
O1       O      0.984390000000     0.051160000000     0.076430000000    -0.486106   
O2       O      0.977290000000     0.044080000000     0.945700000000    -0.486518   
O3       O      0.914570000000     0.046900000000     0.014300000000    -0.486523   
O4       O      0.044980000000     0.052050000000     0.007430000000    -0.484512   
O5       O      0.046230000000     0.971690000000     0.012140000000    -0.486501   
O6       O      0.915840000000     0.966430000000     0.016940000000    -0.485086   
O7       O      0.978130000000     0.963630000000     0.948980000000    -0.487601   
O8       O      0.982880000000     0.970700000000     0.079760000000    -0.48595    
O9       O      0.984950000000     0.046860000000     0.580700000000    -0.483196   
O10      O      0.985220000000     0.048860000000     0.449830000000    -0.492292   
O11      O      0.919920000000     0.049880000000     0.517330000000    -0.488853   
O12      O      0.050250000000     0.052090000000     0.518560000000    -0.488841   
O13      O      0.052260000000     0.971780000000     0.512200000000    -0.479409   
O14      O      0.921840000000     0.969690000000     0.512740000000    -0.488956   
O15      O      0.987690000000     0.968510000000     0.446370000000    -0.486986   
O16      O      0.987710000000     0.966300000000     0.577560000000    -0.482917   
O17      O      0.993020000000     0.548870000000     0.069010000000    -0.489843   
O18      O      0.982720000000     0.552010000000     0.938360000000    -0.483827   
O19      O      0.922410000000     0.548000000000     0.008130000000    -0.491595   
O20      O      0.052100000000     0.544850000000     0.997940000000    -0.482174   
O21      O      0.048020000000     0.464600000000     0.992160000000    -0.486373   
O22      O      0.918020000000     0.467900000000     0.002770000000    -0.486822   
O23      O      0.978870000000     0.471530000000     0.935040000000    -0.478696   
O24      O      0.989080000000     0.468600000000     0.065580000000    -0.490402   
O25      O      0.980690000000     0.554070000000     0.566330000000    -0.488998   
O26      O      0.989800000000     0.547990000000     0.435580000000    -0.483405   
O27      O      0.920540000000     0.546580000000     0.496550000000    -0.480801   
O28      O      0.051180000000     0.547210000000     0.504930000000    -0.48341    
O29      O      0.051240000000     0.466970000000     0.509900000000    -0.484175   
O30      O      0.921240000000     0.465920000000     0.497070000000    -0.484558   
O31      O      0.993250000000     0.467630000000     0.438840000000    -0.481855   
O32      O      0.980620000000     0.473640000000     0.569170000000    -0.487197   
O33      O      0.499830000000     0.048870000000     0.069400000000    -0.4847     
O34      O      0.464350000000     0.048640000000     0.942950000000    -0.485064   
O35      O      0.418370000000     0.046690000000     0.026640000000    -0.485443   
O36      O      0.544000000000     0.049660000000     0.991540000000    -0.484435   
O37      O      0.543180000000     0.969210000000     0.987960000000    -0.483553   
O38      O      0.417420000000     0.966140000000     0.023890000000    -0.482986   
O39      O      0.460810000000     0.968270000000     0.943490000000    -0.483932   
O40      O      0.496400000000     0.968500000000     0.069880000000    -0.484417   
O41      O      0.479710000000     0.046510000000     0.568550000000    -0.480109   
O42      O      0.501870000000     0.048270000000     0.439270000000    -0.487289   
O43      O      0.426190000000     0.053630000000     0.492350000000    -0.488766   
O44      O      0.554650000000     0.050050000000     0.514840000000    -0.485085   
O45      O      0.553270000000     0.969620000000     0.512840000000    -0.486309   
O46      O      0.424240000000     0.973090000000     0.494530000000    -0.485386   
O47      O      0.499050000000     0.967920000000     0.437910000000    -0.485194   
O48      O      0.481760000000     0.965970000000     0.568070000000    -0.485537   
O49      O      0.486550000000     0.550140000000     0.076760000000    -0.489787   
O50      O      0.477960000000     0.548240000000     0.945900000000    -0.482451   
O51      O      0.419590000000     0.544080000000     0.013800000000    -0.484672   
O52      O      0.549350000000     0.551640000000     0.004980000000    -0.488137   
O53      O      0.553740000000     0.471210000000     0.008140000000    -0.484258   
O54      O      0.423920000000     0.463730000000     0.018300000000    -0.487311   
O55      O      0.485780000000     0.468250000000     0.947760000000    -0.481984   
O56      O      0.495650000000     0.470400000000     0.078690000000    -0.485804   
O57      O      0.468730000000     0.548740000000     0.577550000000    -0.482424   
O58      O      0.505400000000     0.553020000000     0.451420000000    -0.484189   
O59      O      0.424380000000     0.549910000000     0.497300000000    -0.479742   
O60      O      0.550080000000     0.545780000000     0.533580000000    -0.483013   
O61      O      0.549290000000     0.465390000000     0.529150000000    -0.485823   
O62      O      0.424450000000     0.469820000000     0.490020000000    -0.483033   
O63      O      0.505560000000     0.472460000000     0.448690000000    -0.484095   
O64      O      0.466070000000     0.468430000000     0.573520000000    -0.487145   
S1       S      0.545060000000     0.463960000000     0.830560000000    -0.0581207  
S2       S      0.591000000000     0.457180000000     0.350130000000    -0.0606442  
S3       S      0.427170000000     0.653260000000     0.454380000000    -0.0523542  
S4       S      0.429230000000     0.149950000000     0.567530000000    -0.0527336  
S5       S      0.504350000000     0.655240000000     0.926960000000    -0.0520661  
S6       S      0.438250000000     0.366920000000     0.943690000000    -0.0526139  
S7       S      0.526040000000     0.068670000000     0.683590000000    -0.0577713  
S8       S      0.456610000000     0.073640000000     0.327920000000    -0.0613276  
S9       S      0.811990000000     0.451760000000     0.424450000000    -0.0578647  
S10      S      0.162710000000     0.457170000000     0.578390000000    -0.0577124  
S11      S      0.817680000000     0.569200000000     0.075620000000    -0.0602534  
S12      S      0.307700000000     0.563630000000     0.073030000000    -0.0576481  
S13      S      0.911690000000     0.577270000000     0.838160000000    -0.056394   
S14      S      0.934860000000     0.442530000000     0.171520000000    -0.0579482  
S15      S      0.061470000000     0.868210000000     0.462340000000    -0.0527295  
S16      S      0.946670000000     0.362850000000     0.429570000000    -0.0506322  
S17      S      0.814380000000     0.948220000000     0.454370000000    -0.0597465  
S18      S      0.164530000000     0.949030000000     0.571170000000    -0.0592518  
S19      S      0.066940000000     0.648220000000     0.046070000000    -0.054439   
S20      S      0.937230000000     0.365950000000     0.923740000000    -0.053088   
S21      S      0.651040000000     0.072900000000     0.915700000000    -0.0614932  
S22      S      0.156280000000     0.063390000000     0.940250000000    -0.0600533  
S23      S      0.040540000000     0.938930000000     0.848050000000    -0.0578331  
S24      S      0.922300000000     0.071770000000     0.344900000000    -0.059296   


