data_structure

_audit_creation_method RASPA-1.0
_audit_creation_date 2023-5-25
_audit_author_name 'Poobodin Mano'

_cell_length_a    29.193
_cell_length_b    27.3613
_cell_length_c    29.1953
_cell_angle_alpha 90
_cell_angle_beta  89.9997
_cell_angle_gamma 90.0014
_cell_volume      23320

_symmetry_cell_setting          triclinic
_symmetry_space_group_name_Hall 'P 1'
_symmetry_space_group_name_H-M  'P 1'
_symmetry_Int_Tables_number     1

_symmetry_equiv_pos_as_xyz 'x,y,z'

loop_
_atom_site_label
_atom_site_type_symbol
_atom_site_fract_x
_atom_site_fract_y
_atom_site_fract_z
_atom_site_charge
C1       C      0.986820000000     0.007250000000     0.088560000000     0.474986   
C2       C      0.983800000000     0.006260000000     0.914490000000     0.473395   
C3       C      0.073660000000     0.006010000000     0.999550000000     0.474293   
C4       C      0.899520000000     0.006850000000     0.002830000000     0.476471   
C5       C      0.986330000000     0.009150000000     0.588270000000     0.472839   
C6       C      0.987490000000     0.005690000000     0.414130000000     0.473684   
C7       C      0.073860000000     0.003070000000     0.501750000000     0.473851   
C8       C      0.899760000000     0.007470000000     0.500880000000     0.476811   
C9       C      0.984830000000     0.508890000000     0.094230000000     0.473516   
C10      C      0.984320000000     0.504110000000     0.920320000000     0.4742     
C11      C      0.070840000000     0.506590000000     0.007170000000     0.478063   
C12      C      0.896740000000     0.508350000000     0.007400000000     0.478339   
C13      C      0.986690000000     0.503640000000     0.594550000000     0.47315    
C14      C      0.989850000000     0.505740000000     0.420540000000     0.473976   
C15      C      0.073530000000     0.508910000000     0.510330000000     0.475946   
C16      C      0.899480000000     0.509190000000     0.506830000000     0.475412   
C17      C      0.487550000000     0.008830000000     0.095860000000     0.477376   
C18      C      0.490010000000     0.011960000000     0.921780000000     0.471426   
C19      C      0.574190000000     0.007620000000     0.009100000000     0.472806   
C20      C      0.400100000000     0.005970000000     0.006850000000     0.474699   
C21      C      0.486890000000     0.011900000000     0.594650000000     0.474786   
C22      C      0.489130000000     0.008600000000     0.420630000000     0.474393   
C23      C      0.574280000000     0.007540000000     0.507350000000     0.474172   
C24      C      0.400210000000     0.003590000000     0.505510000000     0.472001   
C25      C      0.482380000000     0.506120000000     0.095640000000     0.473629   
C26      C      0.484420000000     0.507410000000     0.921540000000     0.475171   
C27      C      0.570410000000     0.511650000000     0.010140000000     0.474131   
C28      C      0.396290000000     0.508800000000     0.007460000000     0.475018   
C29      C      0.487690000000     0.508410000000     0.596440000000     0.477064   
C30      C      0.483410000000     0.505310000000     0.422340000000     0.472577   
C31      C      0.572900000000     0.510060000000     0.508130000000     0.472157   
C32      C      0.398730000000     0.508130000000     0.511840000000     0.475924   
C33      C      0.482400000000     0.554830000000     0.849350000000     0.0140741  
C34      C      0.491820000000     0.462520000000     0.669330000000     0.0181573  
C35      C      0.492420000000     0.556360000000     0.668210000000     0.101063   
C36      C      0.462710000000     0.464340000000     0.712850000000    -0.108819   
C37      C      0.513120000000     0.553820000000     0.806840000000    -0.100709   
C38      C      0.464640000000     0.555460000000     0.713090000000    -0.133436   
C39      C      0.501500000000     0.508720000000     0.779140000000     0.0137966  
C40      C      0.475700000000     0.509480000000     0.739800000000     0.0298107  
C41      C      0.481440000000     0.461530000000     0.848490000000     0.014043   
C42      C      0.512160000000     0.462750000000     0.805990000000    -0.100927   
C43      C      0.542920000000     0.568770000000     0.677110000000    -0.193688   
C44      C      0.478700000000     0.551140000000     0.349300000000     0.0139434  
C45      C      0.486390000000     0.458760000000     0.167690000000     0.0182592  
C46      C      0.484680000000     0.552590000000     0.168360000000     0.100731   
C47      C      0.457760000000     0.458770000000     0.211620000000    -0.108904   
C48      C      0.507730000000     0.548840000000     0.305670000000    -0.100624   
C49      C      0.457030000000     0.549870000000     0.213240000000    -0.133071   
C50      C      0.494750000000     0.503370000000     0.279040000000     0.0136226  
C51      C      0.469490000000     0.503860000000     0.239290000000     0.0292143  
C52      C      0.476600000000     0.458020000000     0.350280000000     0.0142534  
C53      C      0.505380000000     0.457660000000     0.306380000000    -0.101154   
C54      C      0.534820000000     0.566430000000     0.177450000000    -0.193334   
C55      C      0.522120000000     0.650210000000     0.484510000000    -0.00133897 
C56      C      0.456700000000     0.864290000000     0.540350000000     0.00750429 
C57      C      0.497740000000     0.862490000000     0.467220000000     0.0891172  
C58      C      0.470200000000     0.811530000000     0.551980000000    -0.0986107  
C59      C      0.512710000000     0.703760000000     0.472990000000    -0.0887345  
C60      C      0.517040000000     0.811140000000     0.475660000000    -0.123639   
C61      C      0.490800000000     0.732350000000     0.512320000000     0.00834854 
C62      C      0.489960000000     0.782640000000     0.511620000000     0.0229175  
C63      C      0.474660000000     0.650080000000     0.551500000000    -0.00120443 
C64      C      0.462160000000     0.704210000000     0.547330000000    -0.0889815  
C65      C      0.453750000000     0.860860000000     0.437890000000    -0.189927   
C66      C      0.510000000000     0.365590000000     0.473440000000    -0.00183934 
C67      C      0.453810000000     0.151460000000     0.538240000000     0.00753295 
C68      C      0.527480000000     0.153460000000     0.498200000000     0.0891473  
C69      C      0.442390000000     0.204300000000     0.524800000000    -0.0987165  
C70      C      0.521640000000     0.312110000000     0.482950000000    -0.08846    
C71      C      0.519190000000     0.204760000000     0.478750000000    -0.123586   
C72      C      0.482270000000     0.283510000000     0.504720000000     0.00853509 
C73      C      0.482950000000     0.233220000000     0.505480000000     0.023024   
C74      C      0.443180000000     0.365850000000     0.521150000000    -0.00114989 
C75      C      0.447230000000     0.311610000000     0.533370000000    -0.0891617  
C76      C      0.556110000000     0.155230000000     0.542650000000    -0.18974    
C77      C      0.519260000000     0.650690000000     0.984390000000    -0.00107196 
C78      C      0.454470000000     0.865070000000     0.038660000000     0.00708391 
C79      C      0.495020000000     0.863180000000     0.965300000000     0.0896835  
C80      C      0.467760000000     0.812390000000     0.050490000000    -0.0982816  
C81      C      0.509250000000     0.703890000000     0.972200000000    -0.0885353  
C82      C      0.513320000000     0.811230000000     0.973270000000    -0.123455   
C83      C      0.488040000000     0.732900000000     0.011570000000     0.00849808 
C84      C      0.486890000000     0.783170000000     0.010100000000     0.0226736  
C85      C      0.472950000000     0.650860000000     0.052180000000     0.000346537
C86      C      0.460500000000     0.705090000000     0.047790000000    -0.0895902  
C87      C      0.450880000000     0.862900000000     0.936200000000    -0.190137   
C88      C      0.462210000000     0.150940000000     0.973670000000    -0.00118106 
C89      C      0.516660000000     0.365100000000     0.040170000000     0.00742921 
C90      C      0.442770000000     0.362620000000     0.000560000000     0.0888785  
C91      C      0.528210000000     0.312230000000     0.026840000000    -0.098508   
C92      C      0.450010000000     0.204090000000     0.983950000000    -0.0881948  
C93      C      0.451140000000     0.311360000000     0.981100000000    -0.123262   
C94      C      0.489180000000     0.232860000000     0.005900000000     0.00830778 
C95      C      0.487880000000     0.283110000000     0.007350000000     0.0227863  
C96      C      0.529350000000     0.150750000000     0.020970000000    -0.000483169
C97      C      0.524810000000     0.204790000000     0.033900000000    -0.089246   
C98      C      0.414510000000     0.360800000000     0.045220000000    -0.189369   
C99      C      0.496060000000     0.967160000000     0.848190000000     0.0143201  
C100     C      0.480840000000     0.059420000000     0.666520000000     0.0182987  
C101     C      0.485660000000     0.965820000000     0.667650000000     0.100387   
C102     C      0.509960000000     0.060920000000     0.710130000000    -0.108915   
C103     C      0.465590000000     0.969040000000     0.805550000000    -0.100314   
C104     C      0.513980000000     0.969810000000     0.712000000000    -0.132444   
C105     C      0.476730000000     0.015060000000     0.778840000000     0.013008   
C106     C      0.500490000000     0.015440000000     0.738170000000     0.0287302  
C107     C      0.496070000000     0.060060000000     0.850070000000     0.0142177  
C108     C      0.466170000000     0.060340000000     0.806890000000    -0.101086   
C109     C      0.436040000000     0.950620000000     0.677660000000    -0.192791   
C110     C      0.486180000000     0.054060000000     0.347460000000     0.0141425  
C111     C      0.494410000000     0.961430000000     0.167660000000     0.0183953  
C112     C      0.489450000000     0.055220000000     0.168530000000     0.100449   
C113     C      0.466700000000     0.960320000000     0.212160000000    -0.108534   
C114     C      0.515920000000     0.052660000000     0.304330000000    -0.100691   
C115     C      0.462630000000     0.051310000000     0.213780000000    -0.133142   
C116     C      0.504520000000     0.006670000000     0.277900000000     0.0137001  
C117     C      0.477430000000     0.005920000000     0.239440000000     0.0292991  
C118     C      0.487980000000     0.960600000000     0.348830000000     0.0143028  
C119     C      0.517160000000     0.961670000000     0.305240000000    -0.100923   
C120     C      0.539210000000     0.071100000000     0.176770000000    -0.192397   
C121     C      0.645640000000     0.463580000000     0.510210000000     0.0139222  
C122     C      0.827090000000     0.556000000000     0.502610000000     0.0183667  
C123     C      0.827140000000     0.462190000000     0.502280000000     0.0998772  
C124     C      0.783010000000     0.554920000000     0.530980000000    -0.10885    
C125     C      0.688730000000     0.465550000000     0.480350000000    -0.100644   
C126     C      0.782050000000     0.463770000000     0.529690000000    -0.132708   
C127     C      0.715920000000     0.510740000000     0.492990000000     0.0136088  
C128     C      0.755720000000     0.509900000000     0.518160000000     0.0290649  
C129     C      0.645440000000     0.556810000000     0.512310000000     0.0142766  
C130     C      0.688770000000     0.556630000000     0.482680000000    -0.101213   
C131     C      0.818470000000     0.449750000000     0.451740000000    -0.192525   
C132     C      0.326140000000     0.554520000000     0.517590000000     0.0140977  
C133     C      0.145960000000     0.462160000000     0.508320000000     0.0182796  
C134     C      0.145810000000     0.556130000000     0.510010000000     0.100906   
C135     C      0.189310000000     0.462760000000     0.537740000000    -0.109041   
C136     C      0.282760000000     0.553420000000     0.488150000000    -0.100737   
C137     C      0.190180000000     0.553750000000     0.538470000000    -0.133335   
C138     C      0.255790000000     0.507870000000     0.500020000000     0.0138679  
C139     C      0.216660000000     0.508030000000     0.526160000000     0.0297347  
C140     C      0.326330000000     0.461310000000     0.517480000000     0.0146641  
C141     C      0.282730000000     0.462230000000     0.488310000000    -0.101302   
C142     C      0.155680000000     0.570350000000     0.460110000000    -0.193201   
C143     C      0.643400000000     0.465670000000     0.014260000000     0.0140625  
C144     C      0.825080000000     0.556130000000     0.001650000000     0.0181381  
C145     C      0.823580000000     0.462490000000     0.006260000000     0.0995275  
C146     C      0.781770000000     0.557730000000     0.031120000000    -0.108714   
C147     C      0.686330000000     0.467650000000     0.984210000000    -0.100574   
C148     C      0.778990000000     0.466650000000     0.034240000000    -0.132245   
C149     C      0.713310000000     0.513150000000     0.996290000000     0.0139486  
C150     C      0.753370000000     0.512720000000     0.021020000000     0.0284744  
C151     C      0.642660000000     0.558770000000     0.015880000000     0.0143165  
C152     C      0.685830000000     0.558860000000     0.986010000000    -0.10119    
C153     C      0.813860000000     0.447250000000     0.956600000000    -0.192311   
C154     C      0.324220000000     0.461300000000     0.002850000000     0.0139212  
C155     C      0.143630000000     0.552810000000     0.009140000000     0.0179068  
C156     C      0.142750000000     0.459060000000     0.012890000000     0.100623   
C157     C      0.187870000000     0.550000000000     0.981190000000    -0.108946   
C158     C      0.281700000000     0.461630000000     0.033500000000    -0.100646   
C159     C      0.187760000000     0.459020000000     0.985410000000    -0.133609   
C160     C      0.253640000000     0.506450000000     0.021770000000     0.0130147  
C161     C      0.214480000000     0.505170000000     0.995700000000     0.0301678  
C162     C      0.323070000000     0.554420000000     0.002800000000     0.0133256  
C163     C      0.279930000000     0.552750000000     0.032680000000    -0.100395   
C164     C      0.151230000000     0.448390000000     0.063810000000    -0.193161   
C165     C      0.990880000000     0.548270000000     0.668250000000     0.0141492  
C166     C      0.978980000000     0.455950000000     0.848840000000     0.0181947  
C167     C      0.983510000000     0.549670000000     0.847110000000     0.100486   
C168     C      0.007850000000     0.454340000000     0.805080000000    -0.108702   
C169     C      0.960600000000     0.545740000000     0.710950000000    -0.100819   
C170     C      0.011660000000     0.545380000000     0.802710000000    -0.13267    
C171     C      0.972580000000     0.499810000000     0.737320000000     0.0136408  
C172     C      0.997890000000     0.499620000000     0.777000000000     0.0290394  
C173     C      0.991720000000     0.455190000000     0.666040000000     0.0136617  
C174     C      0.962020000000     0.454550000000     0.709330000000    -0.101004   
C175     C      0.933870000000     0.564890000000     0.837230000000    -0.192964   
C176     C      0.993710000000     0.461440000000     0.346560000000     0.013827   
C177     C      0.981690000000     0.556590000000     0.166200000000     0.0178305  
C178     C      0.983460000000     0.462800000000     0.167130000000     0.100466   
C179     C      0.011290000000     0.556800000000     0.209530000000    -0.108724   
C180     C      0.963490000000     0.465650000000     0.303870000000    -0.100362   
C181     C      0.012620000000     0.465640000000     0.210950000000    -0.132806   
C182     C      0.976630000000     0.511560000000     0.277880000000     0.0130259  
C183     C      0.000710000000     0.511480000000     0.237420000000     0.02923    
C184     C      0.998230000000     0.554280000000     0.349420000000     0.0138589  
C185     C      0.968060000000     0.556820000000     0.306550000000    -0.100972   
C186     C      0.933550000000     0.449350000000     0.177910000000    -0.192818   
C187     C      0.021340000000     0.864260000000     0.527890000000    -0.000941208
C188     C      0.953440000000     0.649820000000     0.477020000000     0.00777937 
C189     C      0.994170000000     0.652450000000     0.550280000000     0.0895557  
C190     C      0.966910000000     0.702320000000     0.464650000000    -0.0983098  
C191     C      0.010710000000     0.811410000000     0.541020000000    -0.0884204  
C192     C      0.013040000000     0.704020000000     0.541620000000    -0.123185   
C193     C      0.988560000000     0.782050000000     0.502360000000     0.00844935 
C194     C      0.986760000000     0.731850000000     0.504530000000     0.0225936  
C195     C      0.974240000000     0.863410000000     0.460620000000    -0.000149505
C196     C      0.960810000000     0.809640000000     0.466200000000    -0.0893433  
C197     C      0.950020000000     0.653690000000     0.579330000000    -0.189874   
C198     C      0.012200000000     0.148970000000     0.536820000000    -0.00135376 
C199     C      0.956420000000     0.363540000000     0.472290000000     0.00748523 
C200     C      0.029010000000     0.361750000000     0.514220000000     0.0892642  
C201     C      0.945390000000     0.310200000000     0.484250000000    -0.0985706  
C202     C      0.024120000000     0.202410000000     0.527210000000    -0.0886043  
C203     C      0.021100000000     0.309760000000     0.532240000000    -0.123494   
C204     C      0.985070000000     0.231080000000     0.504910000000     0.00831175 
C205     C      0.985620000000     0.281400000000     0.504400000000     0.0228029  
C206     C      0.945910000000     0.148940000000     0.488330000000    -0.00129924 
C207     C      0.950690000000     0.202950000000     0.475510000000    -0.0891121  
C208     C      0.058850000000     0.361770000000     0.470550000000    -0.18992    
C209     C      0.647720000000     0.962350000000     0.509610000000     0.0144041  
C210     C      0.827830000000     0.055060000000     0.496040000000     0.0184523  
C211     C      0.826920000000     0.961290000000     0.498850000000     0.100956   
C212     C      0.784260000000     0.055620000000     0.525230000000    -0.108854   
C213     C      0.689750000000     0.964430000000     0.478350000000    -0.100202   
C214     C      0.782700000000     0.964480000000     0.527410000000    -0.1328     
C215     C      0.716630000000     0.010190000000     0.489640000000     0.0133139  
C216     C      0.756490000000     0.010270000000     0.514670000000     0.029092   
C217     C      0.646130000000     0.055620000000     0.509800000000     0.0139432  
C218     C      0.688780000000     0.055530000000     0.479210000000    -0.101089   
C219     C      0.816830000000     0.947170000000     0.448970000000    -0.192681   
C220     C      0.328470000000     0.955590000000     0.499640000000     0.0139547  
C221     C      0.147140000000     0.048190000000     0.506450000000     0.0180112  
C222     C      0.145230000000     0.954390000000     0.506060000000     0.100528   
C223     C      0.191150000000     0.046220000000     0.478080000000    -0.108587   
C224     C      0.284520000000     0.955580000000     0.528380000000    -0.10017    
C225     C      0.190710000000     0.955110000000     0.479200000000    -0.13266    
C226     C      0.257000000000     0.000930000000     0.516920000000     0.0131446  
C227     C      0.217630000000     0.000730000000     0.491070000000     0.0290695  
C228     C      0.326910000000     0.048770000000     0.500090000000     0.0139916  
C229     C      0.283380000000     0.046740000000     0.529270000000    -0.100851   
C230     C      0.153050000000     0.941130000000     0.556560000000    -0.192822   
C231     C      0.006100000000     0.863700000000     0.963320000000    -0.000306051
C232     C      0.955920000000     0.651710000000     0.038860000000     0.0082318  
C233     C      0.025990000000     0.652360000000     0.992730000000     0.0913633  
C234     C      0.943080000000     0.703920000000     0.024600000000    -0.0985499  
C235     C      0.018000000000     0.810210000000     0.972600000000    -0.0888079  
C236     C      0.015750000000     0.702770000000     0.972160000000    -0.123911   
C237     C      0.980690000000     0.782390000000     0.998540000000     0.00890834 
C238     C      0.981690000000     0.732180000000     0.000870000000     0.0221258  
C239     C      0.943140000000     0.865290000000     0.015970000000     4.46169e-05
C240     C      0.947890000000     0.811370000000     0.029040000000    -0.0897681  
C241     C      0.058000000000     0.656280000000     0.034710000000    -0.18967    
C242     C      0.010010000000     0.148790000000     0.039090000000    -0.00230963 
C243     C      0.950840000000     0.363100000000     0.977440000000     0.00636962 
C244     C      0.024980000000     0.361200000000     0.016560000000     0.0892913  
C245     C      0.940060000000     0.309960000000     0.990470000000    -0.0979056  
C246     C      0.020890000000     0.202610000000     0.030350000000    -0.088147   
C247     C      0.017010000000     0.309900000000     0.036090000000    -0.123637   
C248     C      0.981090000000     0.230960000000     0.009100000000     0.00812234 
C249     C      0.981040000000     0.281260000000     0.009180000000     0.022295   
C250     C      0.943120000000     0.148360000000     0.991500000000    -0.00073952 
C251     C      0.946520000000     0.202810000000     0.979940000000    -0.0891649  
C252     C      0.052860000000     0.359320000000     0.971620000000    -0.188976   
C253     C      0.647110000000     0.961420000000     0.010330000000     0.0139859  
C254     C      0.827280000000     0.054050000000     0.001460000000     0.0182031  
C255     C      0.826970000000     0.960190000000     0.999670000000     0.10168    
C256     C      0.784150000000     0.052580000000     0.031190000000    -0.108733   
C257     C      0.689520000000     0.964530000000     0.979630000000    -0.100171   
C258     C      0.782760000000     0.961520000000     0.028430000000    -0.133065   
C259     C      0.716690000000     0.009450000000     0.993050000000     0.0135768  
C260     C      0.756410000000     0.007950000000     0.018250000000     0.0286632  
C261     C      0.646540000000     0.054520000000     0.014940000000     0.0142918  
C262     C      0.689250000000     0.055550000000     0.984470000000    -0.101112   
C263     C      0.816830000000     0.948530000000     0.949250000000    -0.193523   
C264     C      0.146780000000     0.051940000000     0.996570000000     0.0144805  
C265     C      0.327830000000     0.958750000000     0.008230000000     0.0180257  
C266     C      0.327420000000     0.052570000000     0.008510000000     0.100111   
C267     C      0.284970000000     0.959600000000     0.978030000000    -0.108121   
C268     C      0.189590000000     0.048890000000     0.026750000000    -0.100738   
C269     C      0.283620000000     0.050710000000     0.979140000000    -0.132662   
C270     C      0.216520000000     0.003610000000     0.013700000000     0.0131635  
C271     C      0.257020000000     0.004520000000     0.989680000000     0.0288671  
C272     C      0.145830000000     0.958980000000     0.992370000000     0.0147783  
C273     C      0.188770000000     0.957740000000     0.022520000000    -0.100873   
C274     C      0.316460000000     0.064960000000     0.058620000000    -0.192971   
C275     C      0.989080000000     0.055780000000     0.661010000000     0.0138521  
C276     C      0.978450000000     0.960880000000     0.841300000000     0.018494   
C277     C      0.978280000000     0.054600000000     0.843010000000     0.0994967  
C278     C      0.007140000000     0.962830000000     0.797450000000    -0.107949   
C279     C      0.958560000000     0.054230000000     0.703710000000    -0.100628   
C280     C      0.006010000000     0.054040000000     0.798120000000    -0.132332   
C281     C      0.969850000000     0.008560000000     0.730870000000     0.0132982  
C282     C      0.994650000000     0.008500000000     0.770890000000     0.0283243  
C283     C      0.990150000000     0.962590000000     0.660890000000     0.0141903  
C284     C      0.959270000000     0.963090000000     0.703270000000    -0.100624   
C285     C      0.927730000000     0.066940000000     0.834250000000    -0.19212    
C286     C      0.991000000000     0.958650000000     0.341720000000     0.0140353  
C287     C      0.983340000000     0.052770000000     0.161710000000     0.0182651  
C288     C      0.982640000000     0.958920000000     0.160070000000     0.10004    
C289     C      0.011850000000     0.050560000000     0.205640000000    -0.108509   
C290     C      0.961080000000     0.959830000000     0.298600000000    -0.100241   
C291     C      0.010180000000     0.959460000000     0.205080000000    -0.132277   
C292     C      0.972820000000     0.005290000000     0.271390000000     0.0131979  
C293     C      0.998750000000     0.005080000000     0.232110000000     0.0288608  
C294     C      0.991700000000     0.051920000000     0.341350000000     0.013493   
C295     C      0.961590000000     0.050940000000     0.298440000000    -0.100676   
C296     C      0.932090000000     0.946400000000     0.168620000000    -0.192197   
Cu1      Cu     0.986370000000     0.954960000000     0.001200000000     1.20369    
Cu2      Cu     0.986890000000     0.058390000000     0.001840000000     1.19764    
Cu3      Cu     0.985850000000     0.954770000000     0.501750000000     1.20671    
Cu4      Cu     0.987710000000     0.058190000000     0.500650000000     1.19445    
Cu5      Cu     0.983120000000     0.455100000000     0.008360000000     1.20287    
Cu6      Cu     0.984270000000     0.558730000000     0.006140000000     1.20536    
Cu7      Cu     0.986480000000     0.455080000000     0.506620000000     1.19864    
Cu8      Cu     0.986590000000     0.558480000000     0.508380000000     1.20495    
Cu9      Cu     0.487520000000     0.956780000000     0.008130000000     1.19687    
Cu10     Cu     0.486690000000     0.060180000000     0.009760000000     1.2048     
Cu11     Cu     0.488210000000     0.956220000000     0.508410000000     1.20245    
Cu12     Cu     0.486210000000     0.059630000000     0.506900000000     1.20047    
Cu13     Cu     0.484010000000     0.456730000000     0.008140000000     1.20136    
Cu14     Cu     0.482720000000     0.560190000000     0.008860000000     1.20067    
Cu15     Cu     0.486030000000     0.456220000000     0.510060000000     1.19904    
Cu16     Cu     0.485460000000     0.559670000000     0.508820000000     1.20063    
H1       H      0.510990000000     0.588890000000     0.788350000000     0.0397131  
H2       H      0.528120000000     0.455870000000     0.679050000000     0.0246191  
H3       H      0.445340000000     0.456170000000     0.837380000000     0.0267071  
H4       H      0.509360000000     0.428170000000     0.786760000000     0.040842   
H5       H      0.465200000000     0.429400000000     0.731510000000     0.0429318  
H6       H      0.468570000000     0.590210000000     0.731860000000     0.0489024  
H7       H      0.492820000000     0.586440000000     0.870890000000     0.0333321  
H8       H      0.480420000000     0.430620000000     0.648690000000     0.0342992  
H9       H      0.548480000000     0.464080000000     0.817430000000     0.0482958  
H10      H      0.427640000000     0.554520000000     0.703980000000     0.0542165  
H11      H      0.491200000000     0.429240000000     0.869450000000     0.0353277  
H12      H      0.549410000000     0.551400000000     0.818240000000     0.0472878  
H13      H      0.426060000000     0.467070000000     0.702730000000     0.0501169  
H14      H      0.478090000000     0.586730000000     0.647290000000     0.0129182  
H15      H      0.446430000000     0.561260000000     0.838330000000     0.0269372  
H16      H      0.559640000000     0.540260000000     0.698380000000     0.0687622  
H17      H      0.545800000000     0.604510000000     0.694940000000     0.059466   
H18      H      0.561560000000     0.571460000000     0.644040000000     0.0711214  
H19      H      0.505350000000     0.583590000000     0.286690000000     0.0397771  
H20      H      0.522910000000     0.452610000000     0.176850000000     0.0234039  
H21      H      0.439960000000     0.453120000000     0.340890000000     0.0262124  
H22      H      0.500540000000     0.422710000000     0.288270000000     0.0402055  
H23      H      0.461880000000     0.423540000000     0.229430000000     0.0420612  
H24      H      0.459700000000     0.584370000000     0.232640000000     0.048856   
H25      H      0.490170000000     0.583130000000     0.369780000000     0.0334029  
H26      H      0.475340000000     0.427150000000     0.146470000000     0.0302959  
H27      H      0.542220000000     0.458140000000     0.316090000000     0.0474097  
H28      H      0.420080000000     0.547740000000     0.204090000000     0.0536934  
H29      H      0.486770000000     0.426000000000     0.371390000000     0.0322158  
H30      H      0.544390000000     0.546130000000     0.315760000000     0.0472275  
H31      H      0.420910000000     0.460230000000     0.202020000000     0.048737   
H32      H      0.469470000000     0.582900000000     0.147970000000     0.0128871  
H33      H      0.442370000000     0.557590000000     0.339540000000     0.0265876  
H34      H      0.552360000000     0.537970000000     0.198140000000     0.0683463  
H35      H      0.536730000000     0.601830000000     0.195980000000     0.0593101  
H36      H      0.553350000000     0.570460000000     0.144430000000     0.0709742  
H37      H      0.546270000000     0.719900000000     0.463360000000     0.0377742  
H38      H      0.422400000000     0.865380000000     0.523920000000     0.0234939  
H39      H      0.505680000000     0.645580000000     0.573320000000     0.026409   
H40      H      0.466330000000     0.719990000000     0.582140000000     0.0376152  
H41      H      0.438710000000     0.794100000000     0.565640000000     0.0391316  
H42      H      0.517710000000     0.792240000000     0.442010000000     0.0463685  
H43      H      0.529850000000     0.630200000000     0.452350000000     0.0264869  
H44      H      0.453680000000     0.885120000000     0.572810000000     0.0241162  
H45      H      0.425520000000     0.707190000000     0.537310000000     0.0444181  
H46      H      0.553000000000     0.814410000000     0.487810000000     0.0529596  
H47      H      0.445910000000     0.630850000000     0.568690000000     0.0283214  
H48      H      0.489490000000     0.705450000000     0.442850000000     0.0447109  
H49      H      0.496280000000     0.812150000000     0.579720000000     0.0463471  
H50      H      0.524000000000     0.883040000000     0.447530000000     0.00782521 
H51      H      0.552740000000     0.647310000000     0.507100000000     0.0273276  
H52      H      0.429270000000     0.832940000000     0.450670000000     0.0640516  
H53      H      0.462600000000     0.851230000000     0.402010000000     0.058762   
H54      H      0.436190000000     0.896770000000     0.437680000000     0.0738609  
H55      H      0.531440000000     0.295950000000     0.449440000000     0.0377707  
H56      H      0.469750000000     0.150200000000     0.572770000000     0.0241238  
H57      H      0.421200000000     0.370600000000     0.490280000000     0.0265533  
H58      H      0.412410000000     0.295930000000     0.529020000000     0.038058   
H59      H      0.428470000000     0.221630000000     0.556220000000     0.0396683  
H60      H      0.552840000000     0.223700000000     0.478390000000     0.0463425  
H61      H      0.542090000000     0.385610000000     0.465470000000     0.0267424  
H62      H      0.421330000000     0.130610000000     0.540720000000     0.025096   
H63      H      0.457140000000     0.308400000000     0.570020000000     0.0446098  
H64      H      0.507390000000     0.201430000000     0.442670000000     0.0530599  
H65      H      0.426210000000     0.384920000000     0.550120000000     0.0283041  
H66      H      0.551710000000     0.310540000000     0.506290000000     0.0447605  
H67      H      0.414880000000     0.203810000000     0.498480000000     0.0467132  
H68      H      0.547620000000     0.132930000000     0.472260000000     0.00763293 
H69      H      0.487260000000     0.368350000000     0.442930000000     0.0279167  
H70      H      0.542890000000     0.183160000000     0.566890000000     0.0640613  
H71      H      0.592100000000     0.164970000000     0.534370000000     0.0586854  
H72      H      0.556100000000     0.119350000000     0.560260000000     0.0733819  
H73      H      0.542470000000     0.720120000000     0.961540000000     0.0377331  
H74      H      0.420160000000     0.866300000000     0.022250000000     0.0239483  
H75      H      0.504260000000     0.646330000000     0.073570000000     0.0247362  
H76      H      0.465710000000     0.721370000000     0.082250000000     0.0379154  
H77      H      0.436340000000     0.795180000000     0.064570000000     0.0394988  
H78      H      0.512570000000     0.792170000000     0.939690000000     0.0463675  
H79      H      0.526800000000     0.630280000000     0.952420000000     0.0272848  
H80      H      0.451450000000     0.885950000000     0.071050000000     0.025964   
H81      H      0.423570000000     0.708010000000     0.038870000000     0.0445778  
H82      H      0.549710000000     0.813640000000     0.984290000000     0.0526966  
H83      H      0.444410000000     0.631820000000     0.069890000000     0.0270866  
H84      H      0.485340000000     0.704850000000     0.942560000000     0.0448868  
H85      H      0.494150000000     0.813060000000     0.077930000000     0.0465866  
H86      H      0.521540000000     0.883380000000     0.945630000000     0.00719504 
H87      H      0.550190000000     0.648480000000     0.006610000000     0.0275674  
H88      H      0.425870000000     0.835480000000     0.948890000000     0.0639201  
H89      H      0.459340000000     0.853310000000     0.900210000000     0.0583759  
H90      H      0.434230000000     0.899310000000     0.936350000000     0.0726944  
H91      H      0.439840000000     0.220630000000     0.950720000000     0.0378813  
H92      H      0.500980000000     0.366510000000     0.074800000000     0.0234415  
H93      H      0.551160000000     0.146640000000     0.989910000000     0.0258448  
H94      H      0.559400000000     0.221040000000     0.029500000000     0.0376336  
H95      H      0.542010000000     0.294880000000     0.058310000000     0.0393014  
H96      H      0.417630000000     0.292150000000     0.981180000000     0.0464146  
H97      H      0.430300000000     0.130620000000     0.965630000000     0.0267939  
H98      H      0.549120000000     0.386000000000     0.042390000000     0.0255002  
H99      H      0.515170000000     0.207340000000     0.070670000000     0.04406    
H100     H      0.462470000000     0.314730000000     0.944870000000     0.0531299  
H101     H      0.546670000000     0.131420000000     0.049580000000     0.026493   
H102     H      0.420060000000     0.204900000000     0.007470000000     0.0443346  
H103     H      0.555860000000     0.312770000000     0.000650000000     0.0462717  
H104     H      0.422330000000     0.382970000000     0.974740000000     0.00817492 
H105     H      0.484830000000     0.148920000000     0.943020000000     0.0278482  
H106     H      0.428320000000     0.333390000000     0.069630000000     0.0636779  
H107     H      0.378630000000     0.350260000000     0.037310000000     0.0580834  
H108     H      0.414070000000     0.396940000000     0.062390000000     0.0726345  
H109     H      0.468030000000     0.934500000000     0.786230000000     0.0390957  
H110     H      0.444220000000     0.063960000000     0.676100000000     0.0231337  
H111     H      0.532390000000     0.065510000000     0.839750000000     0.026053   
H112     H      0.470190000000     0.095580000000     0.789100000000     0.0403208  
H113     H      0.504380000000     0.096030000000     0.727710000000     0.0422431  
H114     H      0.512830000000     0.935290000000     0.731520000000     0.0487813  
H115     H      0.486460000000     0.934470000000     0.868510000000     0.0304564  
H116     H      0.490350000000     0.091410000000     0.645050000000     0.0306226  
H117     H      0.429600000000     0.059170000000     0.817510000000     0.0473548  
H118     H      0.550650000000     0.973340000000     0.702190000000     0.0545036  
H119     H      0.486090000000     0.091780000000     0.871640000000     0.0323204  
H120     H      0.429240000000     0.970800000000     0.816840000000     0.0468411  
H121     H      0.546720000000     0.061180000000     0.700130000000     0.0491031  
H122     H      0.501310000000     0.935780000000     0.647250000000     0.0148629  
H123     H      0.532260000000     0.962370000000     0.837200000000     0.0257975  
H124     H      0.418170000000     0.978610000000     0.698620000000     0.068072   
H125     H      0.435360000000     0.915230000000     0.696290000000     0.0587693  
H126     H      0.417050000000     0.945990000000     0.644980000000     0.0693299  
H127     H      0.512860000000     0.087140000000     0.284960000000     0.0399099  
H128     H      0.531290000000     0.956630000000     0.176070000000     0.0244992  
H129     H      0.451810000000     0.952960000000     0.339260000000     0.024964   
H130     H      0.514270000000     0.926560000000     0.286950000000     0.0398443  
H131     H      0.472430000000     0.925370000000     0.230050000000     0.0420723  
H132     H      0.464250000000     0.085840000000     0.233270000000     0.0492746  
H133     H      0.496540000000     0.086380000000     0.368100000000     0.0347529  
H134     H      0.483990000000     0.929480000000     0.146580000000     0.0319224  
H135     H      0.553840000000     0.964140000000     0.315310000000     0.047498   
H136     H      0.425660000000     0.047510000000     0.205220000000     0.0536333  
H137     H      0.500040000000     0.929650000000     0.370300000000     0.031192   
H138     H      0.552490000000     0.051280000000     0.314960000000     0.0472732  
H139     H      0.429640000000     0.960270000000     0.203320000000     0.0490375  
H140     H      0.472810000000     0.084900000000     0.148440000000     0.0158335  
H141     H      0.449840000000     0.059500000000     0.337190000000     0.0269678  
H142     H      0.558200000000     0.043270000000     0.196910000000     0.0682453  
H143     H      0.540160000000     0.106440000000     0.195490000000     0.0593113  
H144     H      0.556950000000     0.076140000000     0.143430000000     0.0709826  
H145     H      0.707470000000     0.430620000000     0.482320000000     0.039679   
H146     H      0.818090000000     0.562810000000     0.466150000000     0.0229774  
H147     H      0.655550000000     0.561920000000     0.548720000000     0.0251813  
H148     H      0.707370000000     0.591400000000     0.486840000000     0.0400647  
H149     H      0.764910000000     0.590070000000     0.527610000000     0.0420116  
H150     H      0.763020000000     0.429160000000     0.525920000000     0.0489254  
H151     H      0.624640000000     0.431890000000     0.498940000000     0.03317    
H152     H      0.847970000000     0.587580000000     0.514350000000     0.030369   
H153     H      0.678300000000     0.556040000000     0.446060000000     0.0473175  
H154     H      0.790900000000     0.464940000000     0.566740000000     0.054084   
H155     H      0.624340000000     0.588900000000     0.502330000000     0.0317795  
H156     H      0.678000000000     0.468430000000     0.443890000000     0.0470248  
H157     H      0.792450000000     0.552600000000     0.567830000000     0.0488825  
H158     H      0.847640000000     0.431600000000     0.516840000000     0.0148903  
H159     H      0.656010000000     0.456740000000     0.546300000000     0.0265401  
H160     H      0.797590000000     0.478460000000     0.434820000000     0.067769   
H161     H      0.800300000000     0.414210000000     0.448820000000     0.058806   
H162     H      0.851640000000     0.446640000000     0.433310000000     0.0692176  
H163     H      0.264010000000     0.588260000000     0.491210000000     0.0401944  
H164     H      0.155730000000     0.455700000000     0.472000000000     0.0225909  
H165     H      0.316560000000     0.455550000000     0.553900000000     0.0255444  
H166     H      0.264080000000     0.427400000000     0.491820000000     0.0403041  
H167     H      0.207710000000     0.427750000000     0.534400000000     0.0420361  
H168     H      0.209410000000     0.588400000000     0.536230000000     0.0490881  
H169     H      0.346960000000     0.586640000000     0.507100000000     0.0350144  
H170     H      0.124790000000     0.430570000000     0.519410000000     0.0303413  
H171     H      0.292830000000     0.463820000000     0.451600000000     0.0482647  
H172     H      0.180420000000     0.551410000000     0.575240000000     0.0543398  
H173     H      0.347250000000     0.429350000000     0.506760000000     0.032013   
H174     H      0.293100000000     0.551560000000     0.451520000000     0.0482438  
H175     H      0.178980000000     0.464420000000     0.574390000000     0.0496496  
H176     H      0.124850000000     0.586140000000     0.524980000000     0.0159898  
H177     H      0.316120000000     0.560050000000     0.553980000000     0.0261064  
H178     H      0.176700000000     0.542050000000     0.442730000000     0.0685329  
H179     H      0.174160000000     0.605810000000     0.458700000000     0.0601816  
H180     H      0.122960000000     0.574400000000     0.441060000000     0.0721805  
H181     H      0.705400000000     0.432910000000     0.986290000000     0.0399196  
H182     H      0.815240000000     0.560760000000     0.965110000000     0.0234452  
H183     H      0.652970000000     0.563710000000     0.052260000000     0.024881   
H184     H      0.704060000000     0.593820000000     0.990240000000     0.0401802  
H185     H      0.764420000000     0.593100000000     0.026300000000     0.0419353  
H186     H      0.759060000000     0.432400000000     0.032600000000     0.0484571  
H187     H      0.622650000000     0.433570000000     0.003570000000     0.0331377  
H188     H      0.846710000000     0.588020000000     0.011050000000     0.0318819  
H189     H      0.675210000000     0.558150000000     0.949420000000     0.0475923  
H190     H      0.788540000000     0.469640000000     0.071030000000     0.0530612  
H191     H      0.621390000000     0.590820000000     0.006160000000     0.0316776  
H192     H      0.675380000000     0.470140000000     0.947780000000     0.0478959  
H193     H      0.792050000000     0.557220000000     0.067800000000     0.0488381  
H194     H      0.843820000000     0.432410000000     0.022060000000     0.0143009  
H195     H      0.654010000000     0.459560000000     0.050400000000     0.0249461  
H196     H      0.793060000000     0.475270000000     0.938580000000     0.0676955  
H197     H      0.795170000000     0.411890000000     0.955830000000     0.058796   
H198     H      0.846650000000     0.442530000000     0.937810000000     0.0688595  
H199     H      0.263680000000     0.426310000000     0.031170000000     0.0388315  
H200     H      0.152320000000     0.561480000000     0.045320000000     0.0222537  
H201     H      0.312580000000     0.559910000000     0.966540000000     0.027131   
H202     H      0.260370000000     0.587080000000     0.029470000000     0.0400948  
H203     H      0.206630000000     0.584920000000     0.983270000000     0.0422568  
H204     H      0.206270000000     0.424290000000     0.990360000000     0.0482713  
H205     H      0.345680000000     0.429530000000     0.012600000000     0.0304887  
H206     H      0.123140000000     0.583780000000     0.995590000000     0.0304959  
H207     H      0.290700000000     0.551630000000     0.069220000000     0.047374   
H208     H      0.178930000000     0.459010000000     0.948340000000     0.0533897  
H209     H      0.343670000000     0.586770000000     0.013120000000     0.0351801  
H210     H      0.292970000000     0.464110000000     0.069820000000     0.046655   
H211     H      0.178630000000     0.546320000000     0.944380000000     0.0493198  
H212     H      0.122020000000     0.428280000000     0.999380000000     0.0115071  
H213     H      0.313310000000     0.455740000000     0.966720000000     0.0263479  
H214     H      0.172140000000     0.477630000000     0.079890000000     0.0680097  
H215     H      0.169270000000     0.412900000000     0.067900000000     0.0586104  
H216     H      0.118000000000     0.446050000000     0.082220000000     0.070108   
H217     H      0.962570000000     0.580170000000     0.730540000000     0.0391905  
H218     H      0.942340000000     0.450970000000     0.839520000000     0.0224764  
H219     H      0.028100000000     0.449690000000     0.676140000000     0.026555   
H220     H      0.966300000000     0.419340000000     0.727140000000     0.0403601  
H221     H      0.002390000000     0.419140000000     0.787590000000     0.0420959  
H222     H      0.010540000000     0.579700000000     0.782840000000     0.0488698  
H223     H      0.980580000000     0.580780000000     0.648000000000     0.0304978  
H224     H      0.988880000000     0.424230000000     0.870480000000     0.0298917  
H225     H      0.925390000000     0.455520000000     0.698910000000     0.0478801  
H226     H      0.048370000000     0.541850000000     0.812420000000     0.0539839  
H227     H      0.981670000000     0.423600000000     0.644310000000     0.0351505  
H228     H      0.924230000000     0.543460000000     0.699780000000     0.0468865  
H229     H      0.044680000000     0.454350000000     0.814860000000     0.0488171  
H230     H      0.999290000000     0.579800000000     0.867310000000     0.0152614  
H231     H      0.027030000000     0.553800000000     0.679090000000     0.0259762  
H232     H      0.915790000000     0.536680000000     0.816710000000     0.0678289  
H233     H      0.933140000000     0.600060000000     0.818240000000     0.0595169  
H234     H      0.915070000000     0.569950000000     0.869970000000     0.0715     
H235     H      0.964410000000     0.431410000000     0.283950000000     0.0393183  
H236     H      0.945370000000     0.562640000000     0.176160000000     0.0231833  
H237     H      0.034690000000     0.557770000000     0.338850000000     0.0252098  
H238     H      0.973540000000     0.592100000000     0.289230000000     0.0399109  
H239     H      0.006940000000     0.591960000000     0.227370000000     0.0419381  
H240     H      0.010950000000     0.431120000000     0.230470000000     0.0486873  
H241     H      0.982280000000     0.429130000000     0.366620000000     0.0307691  
H242     H      0.992130000000     0.588160000000     0.144630000000     0.0303201  
H243     H      0.931540000000     0.557240000000     0.317400000000     0.0471604  
H244     H      0.049210000000     0.468110000000     0.200510000000     0.0529635  
H245     H      0.990080000000     0.586290000000     0.371390000000     0.0325914  
H246     H      0.927220000000     0.469030000000     0.315140000000     0.0463307  
H247     H      0.047940000000     0.555870000000     0.199170000000     0.0483995  
H248     H      0.997840000000     0.432250000000     0.146460000000     0.0148598  
H249     H      0.029640000000     0.454640000000     0.335590000000     0.0248227  
H250     H      0.916820000000     0.477990000000     0.199030000000     0.0679747  
H251     H      0.932060000000     0.414040000000     0.196640000000     0.0595133  
H252     H      0.913940000000     0.445300000000     0.145520000000     0.0715921  
H253     H      0.043800000000     0.794790000000     0.551530000000     0.0374748  
H254     H      0.919150000000     0.648940000000     0.493470000000     0.0237713  
H255     H      0.005420000000     0.866710000000     0.438860000000     0.026051   
H256     H      0.965050000000     0.792640000000     0.431910000000     0.0375984  
H257     H      0.935400000000     0.719610000000     0.450850000000     0.0392119  
H258     H      0.012600000000     0.723600000000     0.574950000000     0.0463344  
H259     H      0.029400000000     0.885140000000     0.559470000000     0.026048   
H260     H      0.950360000000     0.628500000000     0.444860000000     0.0249917  
H261     H      0.924010000000     0.807700000000     0.475880000000     0.0441839  
H262     H      0.049360000000     0.700990000000     0.530500000000     0.0526806  
H263     H      0.945880000000     0.882670000000     0.442810000000     0.0261036  
H264     H      0.987150000000     0.811380000000     0.570950000000     0.0444594  
H265     H      0.992940000000     0.701210000000     0.436870000000     0.0460874  
H266     H      0.020440000000     0.632170000000     0.570210000000     0.0075859  
H267     H      0.052120000000     0.865670000000     0.505390000000     0.0277322  
H268     H      0.925410000000     0.681390000000     0.566400000000     0.0637124  
H269     H      0.958590000000     0.663460000000     0.615260000000     0.0582912  
H270     H      0.932850000000     0.617550000000     0.579400000000     0.0724481  
H271     H      0.033660000000     0.218630000000     0.560760000000     0.038068   
H272     H      0.973280000000     0.365940000000     0.438260000000     0.023405   
H273     H      0.923570000000     0.144920000000     0.519030000000     0.026571   
H274     H      0.915850000000     0.218910000000     0.478590000000     0.0376967  
H275     H      0.932900000000     0.293320000000     0.452020000000     0.0391373  
H276     H      0.054950000000     0.291250000000     0.532580000000     0.0465778  
H277     H      0.044160000000     0.128850000000     0.545100000000     0.0270845  
H278     H      0.923700000000     0.383920000000     0.469350000000     0.0242603  
H279     H      0.961720000000     0.205570000000     0.439140000000     0.0444356  
H280     H      0.008770000000     0.311920000000     0.568220000000     0.0530905  
H281     H      0.929040000000     0.129640000000     0.459440000000     0.0277995  
H282     H      0.054430000000     0.203780000000     0.504170000000     0.0449081  
H283     H      0.916950000000     0.309620000000     0.509570000000     0.0463509  
H284     H      0.048110000000     0.381940000000     0.541160000000     0.00780809 
H285     H      0.989210000000     0.146420000000     0.567170000000     0.027683   
H286     H      0.046830000000     0.334180000000     0.445370000000     0.0640353  
H287     H      0.094800000000     0.352670000000     0.479600000000     0.0588517  
H288     H      0.058590000000     0.398090000000     0.453740000000     0.073616   
H289     H      0.709120000000     0.929860000000     0.480000000000     0.0398411  
H290     H      0.818180000000     0.060570000000     0.459560000000     0.0228442  
H291     H      0.656920000000     0.061870000000     0.545860000000     0.0245302  
H292     H      0.707030000000     0.090610000000     0.482510000000     0.0396735  
H293     H      0.766330000000     0.090730000000     0.520680000000     0.0420223  
H294     H      0.763210000000     0.929960000000     0.525720000000     0.0492898  
H295     H      0.626950000000     0.929970000000     0.499750000000     0.0348152  
H296     H      0.849250000000     0.086830000000     0.506260000000     0.0310035  
H297     H      0.677530000000     0.054170000000     0.442830000000     0.0473723  
H298     H      0.792630000000     0.967320000000     0.564110000000     0.0546269  
H299     H      0.624370000000     0.087030000000     0.499470000000     0.0310605  
H300     H      0.677770000000     0.966660000000     0.442230000000     0.0476438  
H301     H      0.794330000000     0.054900000000     0.561970000000     0.049476   
H302     H      0.847430000000     0.930950000000     0.513850000000     0.0163359  
H303     H      0.659350000000     0.956710000000     0.545510000000     0.0266211  
H304     H      0.795990000000     0.975610000000     0.431600000000     0.0681177  
H305     H      0.798060000000     0.911870000000     0.447630000000     0.0593122  
H306     H      0.849490000000     0.942800000000     0.429880000000     0.070415   
H307     H      0.266480000000     0.920470000000     0.524250000000     0.0394047  
H308     H      0.156260000000     0.054460000000     0.542960000000     0.0236934  
H309     H      0.317040000000     0.054440000000     0.463680000000     0.0267764  
H310     H      0.264220000000     0.081340000000     0.526470000000     0.0404178  
H311     H      0.210020000000     0.080990000000     0.481100000000     0.042762   
H312     H      0.209020000000     0.920130000000     0.483360000000     0.0488215  
H313     H      0.349790000000     0.923960000000     0.510430000000     0.0309845  
H314     H      0.126920000000     0.080340000000     0.494910000000     0.0332062  
H315     H      0.293580000000     0.044650000000     0.565940000000     0.0472578  
H316     H      0.182380000000     0.956390000000     0.442030000000     0.0544629  
H317     H      0.347190000000     0.081130000000     0.510960000000     0.032979   
H318     H      0.294210000000     0.956850000000     0.565210000000     0.0462788  
H319     H      0.181620000000     0.043910000000     0.441250000000     0.0502938  
H320     H      0.124280000000     0.924470000000     0.490960000000     0.0142112  
H321     H      0.319150000000     0.949810000000     0.463110000000     0.0255394  
H322     H      0.174330000000     0.969150000000     0.574000000000     0.068367   
H323     H      0.170450000000     0.905130000000     0.559320000000     0.0589811  
H324     H      0.119610000000     0.938570000000     0.574570000000     0.0698206  
H325     H      0.024430000000     0.793190000000     0.938640000000     0.03792    
H326     H      0.974740000000     0.651780000000     0.071920000000     0.0223197  
H327     H      0.919020000000     0.869360000000     0.986650000000     0.0263857  
H328     H      0.912820000000     0.795690000000     0.027580000000     0.03754    
H329     H      0.931750000000     0.722460000000     0.056450000000     0.0392357  
H330     H      0.049100000000     0.721830000000     0.968200000000     0.046586   
H331     H      0.037690000000     0.883280000000     0.952750000000     0.0271504  
H332     H      0.923890000000     0.630880000000     0.044840000000     0.0253464  
H333     H      0.960440000000     0.809060000000     0.064940000000     0.0441689  
H334     H      0.000930000000     0.697860000000     0.937380000000     0.0527596  
H335     H      0.928370000000     0.885280000000     0.045600000000     0.0262388  
H336     H      0.050140000000     0.808730000000     0.993010000000     0.0448954  
H337     H      0.913440000000     0.702270000000     0.000740000000     0.0460115  
H338     H      0.044140000000     0.630750000000     0.966100000000     0.00716286 
H339     H      0.981150000000     0.866440000000     0.934580000000     0.0261561  
H340     H      0.046860000000     0.685650000000     0.058490000000     0.0636993  
H341     H      0.093300000000     0.665160000000     0.023220000000     0.0586502  
H342     H      0.059070000000     0.621470000000     0.054100000000     0.0726     
H343     H      0.030500000000     0.218330000000     0.064100000000     0.0376443  
H344     H      0.966170000000     0.365010000000     0.942670000000     0.0229832  
H345     H      0.921300000000     0.143010000000     0.022390000000     0.0265311  
H346     H      0.911470000000     0.217880000000     0.984380000000     0.0375307  
H347     H      0.926050000000     0.292870000000     0.958970000000     0.0389036  
H348     H      0.050800000000     0.291280000000     0.036540000000     0.0460626  
H349     H      0.042410000000     0.129170000000     0.046660000000     0.0273425  
H350     H      0.918060000000     0.383480000000     0.975620000000     0.0254039  
H351     H      0.956500000000     0.206690000000     0.943370000000     0.0440895  
H352     H      0.005080000000     0.313150000000     0.072130000000     0.0525057  
H353     H      0.926260000000     0.129410000000     0.962390000000     0.0266825  
H354     H      0.050880000000     0.205070000000     0.007000000000     0.0446195  
H355     H      0.912760000000     0.309820000000     0.017000000000     0.0457352  
H356     H      0.045540000000     0.381690000000     0.042200000000     0.00682772 
H357     H      0.987410000000     0.145120000000     0.069630000000     0.0276129  
H358     H      0.039030000000     0.331650000000     0.947470000000     0.0638035  
H359     H      0.088870000000     0.349090000000     0.979280000000     0.0588242  
H360     H      0.052840000000     0.395280000000     0.954140000000     0.0729053  
H361     H      0.708530000000     0.929700000000     0.980150000000     0.0399077  
H362     H      0.817160000000     0.061590000000     0.965430000000     0.0223311  
H363     H      0.657390000000     0.058260000000     0.051300000000     0.0245233  
H364     H      0.707830000000     0.090250000000     0.989240000000     0.0401322  
H365     H      0.766020000000     0.087840000000     0.029090000000     0.041913   
H366     H      0.763350000000     0.927110000000     0.024880000000     0.0486057  
H367     H      0.626110000000     0.929830000000     0.998830000000     0.0350557  
H368     H      0.848620000000     0.085330000000     0.013050000000     0.0306072  
H369     H      0.678070000000     0.056050000000     0.948050000000     0.0480075  
H370     H      0.792740000000     0.962090000000     0.065200000000     0.0529261  
H371     H      0.625190000000     0.086910000000     0.006490000000     0.0315092  
H372     H      0.677990000000     0.968550000000     0.943510000000     0.0479568  
H373     H      0.794720000000     0.049400000000     0.067680000000     0.0488678  
H374     H      0.847770000000     0.929330000000     0.013250000000     0.0118168  
H375     H      0.658290000000     0.953850000000     0.046050000000     0.0264762  
H376     H      0.795730000000     0.977670000000     0.933250000000     0.0682121  
H377     H      0.798330000000     0.913180000000     0.946380000000     0.0594397  
H378     H      0.849470000000     0.945430000000     0.929890000000     0.0707267  
H379     H      0.208690000000     0.083650000000     0.025560000000     0.039733   
H380     H      0.317330000000     0.951880000000     0.044270000000     0.0235598  
H381     H      0.156440000000     0.955350000000     0.955930000000     0.0258094  
H382     H      0.206930000000     0.922840000000     0.017510000000     0.0404014  
H383     H      0.266930000000     0.924340000000     0.980730000000     0.0419853  
H384     H      0.264230000000     0.085220000000     0.981790000000     0.048814   
H385     H      0.126040000000     0.083750000000     0.008010000000     0.0332666  
H386     H      0.349340000000     0.927280000000     0.997370000000     0.0305034  
H387     H      0.177890000000     0.957380000000     0.059030000000     0.0484618  
H388     H      0.294150000000     0.049400000000     0.942530000000     0.0534774  
H389     H      0.124460000000     0.926590000000     0.000850000000     0.0340314  
H390     H      0.178480000000     0.045430000000     0.063060000000     0.0474837  
H391     H      0.295920000000     0.961900000000     0.941590000000     0.0486361  
H392     H      0.348370000000     0.083290000000     0.994860000000     0.0144992  
H393     H      0.157580000000     0.059060000000     0.960640000000     0.0262464  
H394     H      0.295080000000     0.036070000000     0.074640000000     0.0682339  
H395     H      0.297930000000     0.100350000000     0.060730000000     0.0596097  
H396     H      0.348770000000     0.068340000000     0.078460000000     0.0714282  
H397     H      0.961010000000     0.089020000000     0.722590000000     0.0398866  
H398     H      0.942010000000     0.954590000000     0.831910000000     0.0228288  
H399     H      0.026250000000     0.957470000000     0.672090000000     0.0249182  
H400     H      0.962030000000     0.928140000000     0.721860000000     0.0401551  
H401     H      0.003930000000     0.928080000000     0.778630000000     0.0420953  
H402     H      0.002250000000     0.089080000000     0.779820000000     0.0491045  
H403     H      0.978620000000     0.087650000000     0.639850000000     0.0324236  
H404     H      0.989840000000     0.928760000000     0.861640000000     0.0310642  
H405     H      0.922990000000     0.964650000000     0.691720000000     0.0483514  
H406     H      0.043000000000     0.052710000000     0.807180000000     0.0544669  
H407     H      0.980740000000     0.930400000000     0.639660000000     0.0335416  
H408     H      0.922210000000     0.052270000000     0.692440000000     0.0475198  
H409     H      0.043920000000     0.964890000000     0.807220000000     0.0496339  
H410     H      0.992550000000     0.084920000000     0.864040000000     0.0166209  
H411     H      0.025120000000     0.061970000000     0.671930000000     0.0255775  
H412     H      0.911060000000     0.038600000000     0.812710000000     0.067501   
H413     H      0.924740000000     0.102850000000     0.816740000000     0.0593165  
H414     H      0.909090000000     0.069220000000     0.867360000000     0.0692559  
H415     H      0.963860000000     0.924920000000     0.279950000000     0.0393745  
H416     H      0.946960000000     0.059680000000     0.170950000000     0.0236821  
H417     H      0.027950000000     0.057360000000     0.330770000000     0.0270592  
H418     H      0.964510000000     0.085710000000     0.279550000000     0.0403142  
H419     H      0.009000000000     0.085300000000     0.224560000000     0.0425155  
H420     H      0.006270000000     0.924500000000     0.223490000000     0.0490325  
H421     H      0.980260000000     0.926900000000     0.362910000000     0.0312539  
H422     H      0.995270000000     0.084630000000     0.141310000000     0.031239   
H423     H      0.925110000000     0.049320000000     0.309370000000     0.0472374  
H424     H      0.047220000000     0.960660000000     0.196180000000     0.05442    
H425     H      0.981620000000     0.084100000000     0.362300000000     0.0348569  
H426     H      0.924570000000     0.961840000000     0.309330000000     0.0462769  
H427     H      0.048640000000     0.048080000000     0.196000000000     0.0494024  
H428     H      0.997090000000     0.928700000000     0.139020000000     0.0162044  
H429     H      0.027190000000     0.952400000000     0.331350000000     0.0265832  
H430     H      0.915210000000     0.974830000000     0.189880000000     0.0680314  
H431     H      0.929130000000     0.910600000000     0.186330000000     0.0590241  
H432     H      0.913630000000     0.943810000000     0.135430000000     0.0699215  
N1       N      0.488950000000     0.509050000000     0.643350000000    -0.199658   
N2       N      0.484630000000     0.507870000000     0.874650000000    -0.188329   
N3       N      0.482500000000     0.505760000000     0.142600000000    -0.199573   
N4       N      0.481630000000     0.504790000000     0.375440000000    -0.188171   
N5       N      0.491230000000     0.887500000000     0.511220000000    -0.247826   
N6       N      0.482040000000     0.628380000000     0.506350000000    -0.235029   
N7       N      0.483430000000     0.128370000000     0.504060000000    -0.247573   
N8       N      0.488330000000     0.387490000000     0.513600000000    -0.234649   
N9       N      0.489190000000     0.887940000000     0.009500000000    -0.247401   
N10      N      0.479580000000     0.628910000000     0.007060000000    -0.235314   
N11      N      0.486750000000     0.387930000000     0.006060000000    -0.247685   
N12      N      0.484330000000     0.128820000000     0.013450000000    -0.235805   
N13      N      0.486290000000     0.012510000000     0.641600000000    -0.19987    
N14      N      0.492200000000     0.013000000000     0.874910000000    -0.188618   
N15      N      0.488500000000     0.008320000000     0.142770000000    -0.2002     
N16      N      0.489860000000     0.007840000000     0.373750000000    -0.188805   
N17      N      0.852530000000     0.509160000000     0.505830000000    -0.19977    
N18      N      0.619840000000     0.510210000000     0.508080000000    -0.188381   
N19      N      0.120450000000     0.508990000000     0.511440000000    -0.199585   
N20      N      0.351870000000     0.507980000000     0.513710000000    -0.188828   
N21      N      0.849800000000     0.509070000000     0.006930000000    -0.200393   
N22      N      0.617310000000     0.512060000000     0.011510000000    -0.188963   
N23      N      0.117790000000     0.506100000000     0.007790000000    -0.200633   
N24      N      0.349400000000     0.508200000000     0.006230000000    -0.18866    
N25      N      0.984150000000     0.503120000000     0.873400000000    -0.199784   
N26      N      0.987740000000     0.502420000000     0.641430000000    -0.188349   
N27      N      0.985130000000     0.509530000000     0.141170000000    -0.199578   
N28      N      0.992180000000     0.507140000000     0.373720000000    -0.189533   
N29      N      0.988080000000     0.627200000000     0.506380000000    -0.248742   
N30      N      0.981760000000     0.886220000000     0.505220000000    -0.236128   
N31      N      0.984730000000     0.386220000000     0.507790000000    -0.247465   
N32      N      0.990760000000     0.126900000000     0.496620000000    -0.234236   
N33      N      0.852830000000     0.008050000000     0.500340000000    -0.199993   
N34      N      0.621180000000     0.008480000000     0.507150000000    -0.1888     
N35      N      0.120800000000     0.001970000000     0.502790000000    -0.19917    
N36      N      0.353320000000     0.002660000000     0.503790000000    -0.188853   
N37      N      0.982670000000     0.627490000000     0.003040000000    -0.249278   
N38      N      0.987770000000     0.886290000000     0.004750000000    -0.236171   
N39      N      0.980790000000     0.386230000000     0.011370000000    -0.247954   
N40      N      0.988530000000     0.127180000000     0.998690000000    -0.234513   
N41      N      0.852590000000     0.007030000000     0.003110000000    -0.20092    
N42      N      0.621090000000     0.007950000000     0.009620000000    -0.188522   
N43      N      0.353160000000     0.005730000000     0.006090000000    -0.200035   
N44      N      0.120560000000     0.005590000000     0.998020000000    -0.188656   
N45      N      0.981900000000     0.007130000000     0.867590000000    -0.199311   
N46      N      0.986640000000     0.009200000000     0.635190000000    -0.188737   
N47      N      0.986200000000     0.006410000000     0.135490000000    -0.199523   
N48      N      0.988160000000     0.005420000000     0.367230000000    -0.188778   
O1       O      0.986400000000     0.967300000000     0.066340000000    -0.488545   
O2       O      0.984430000000     0.965660000000     0.935700000000    -0.485338   
O3       O      0.051640000000     0.965980000000     0.999030000000    -0.487046   
O4       O      0.921050000000     0.966600000000     0.000600000000    -0.489897   
O5       O      0.921440000000     0.046920000000     0.004270000000    -0.487756   
O6       O      0.052220000000     0.046400000000     0.001050000000    -0.485712   
O7       O      0.984460000000     0.046230000000     0.936710000000    -0.486754   
O8       O      0.987130000000     0.047810000000     0.067330000000    -0.486415   
O9       O      0.986340000000     0.968780000000     0.566720000000    -0.487549   
O10      O      0.987480000000     0.965610000000     0.436140000000    -0.486647   
O11      O      0.051400000000     0.963290000000     0.501290000000    -0.489081   
O12      O      0.920930000000     0.966940000000     0.500480000000    -0.48922    
O13      O      0.922040000000     0.047360000000     0.501340000000    -0.486531   
O14      O      0.052850000000     0.043830000000     0.501890000000    -0.483446   
O15      O      0.987290000000     0.046080000000     0.435590000000    -0.48563    
O16      O      0.986480000000     0.049300000000     0.566360000000    -0.485119   
O17      O      0.984250000000     0.468200000000     0.073170000000    -0.487111   
O18      O      0.983150000000     0.464330000000     0.942810000000    -0.492091   
O19      O      0.048680000000     0.466650000000     0.008490000000    -0.490281   
O20      O      0.917960000000     0.467900000000     0.009340000000    -0.48949    
O21      O      0.919000000000     0.548110000000     0.005330000000    -0.491002   
O22      O      0.049500000000     0.546980000000     0.005920000000    -0.491392   
O23      O      0.985100000000     0.544920000000     0.941230000000    -0.485317   
O24      O      0.984690000000     0.548830000000     0.071870000000    -0.488906   
O25      O      0.986570000000     0.463930000000     0.572000000000    -0.484317   
O26      O      0.988410000000     0.464970000000     0.441290000000    -0.491123   
O27      O      0.051830000000     0.468640000000     0.508430000000    -0.486591   
O28      O      0.921250000000     0.468910000000     0.506290000000    -0.487343   
O29      O      0.921200000000     0.549390000000     0.507710000000    -0.493703   
O30      O      0.051780000000     0.549090000000     0.510700000000    -0.48571    
O31      O      0.989590000000     0.545410000000     0.443210000000    -0.489041   
O32      O      0.986530000000     0.544460000000     0.573650000000    -0.485711   
O33      O      0.488460000000     0.968950000000     0.073590000000    -0.486104   
O34      O      0.489300000000     0.971190000000     0.942810000000    -0.483434   
O35      O      0.552740000000     0.967230000000     0.007950000000    -0.481903   
O36      O      0.422060000000     0.965890000000     0.006960000000    -0.492174   
O37      O      0.421600000000     0.046390000000     0.007940000000    -0.488668   
O38      O      0.552190000000     0.047740000000     0.010140000000    -0.485702   
O39      O      0.489240000000     0.051760000000     0.944210000000    -0.487766   
O40      O      0.486470000000     0.049270000000     0.074670000000    -0.491002   
O41      O      0.487920000000     0.971300000000     0.573410000000    -0.48724    
O42      O      0.489520000000     0.968700000000     0.442940000000    -0.486858   
O43      O      0.553280000000     0.966910000000     0.507980000000    -0.484354   
O44      O      0.422640000000     0.963810000000     0.506460000000    -0.491305   
O45      O      0.421250000000     0.044330000000     0.505610000000    -0.48462    
O46      O      0.551810000000     0.047350000000     0.507090000000    -0.487243   
O47      O      0.487640000000     0.049130000000     0.441770000000    -0.484118   
O48      O      0.485940000000     0.051770000000     0.572420000000    -0.492279   
O49      O      0.482830000000     0.466020000000     0.073620000000    -0.49048    
O50      O      0.484120000000     0.467010000000     0.942940000000    -0.484609   
O51      O      0.549060000000     0.471180000000     0.008600000000    -0.486006   
O52      O      0.418500000000     0.468840000000     0.007100000000    -0.488009   
O53      O      0.417550000000     0.549260000000     0.008440000000    -0.485597   
O54      O      0.548300000000     0.551620000000     0.010870000000    -0.488549   
O55      O      0.484120000000     0.547470000000     0.943590000000    -0.486034   
O56      O      0.482470000000     0.546630000000     0.074200000000    -0.486407   
O57      O      0.486510000000     0.467930000000     0.575180000000    -0.48581    
O58      O      0.483520000000     0.465320000000     0.444490000000    -0.486784   
O59      O      0.551280000000     0.469680000000     0.508310000000    -0.484583   
O60      O      0.420560000000     0.467990000000     0.510730000000    -0.486576   
O61      O      0.420340000000     0.548410000000     0.511690000000    -0.486356   
O62      O      0.551040000000     0.550230000000     0.508590000000    -0.486989   
O63      O      0.484420000000     0.545870000000     0.443650000000    -0.484909   
O64      O      0.488110000000     0.548350000000     0.574250000000    -0.488224   


