data_structure

_audit_creation_method RASPA-1.0
_audit_creation_date 2023-5-22
_audit_author_name 'Poobodin Mano'

_cell_length_a    29.3891
_cell_length_b    29.051
_cell_length_c    43.642
_cell_angle_alpha 89.9999
_cell_angle_beta  90
_cell_angle_gamma 120
_cell_volume      32268.8

_symmetry_cell_setting          triclinic
_symmetry_space_group_name_Hall 'P 1'
_symmetry_space_group_name_H-M  'P 1'
_symmetry_Int_Tables_number     1

_symmetry_equiv_pos_as_xyz 'x,y,z'

loop_
_atom_site_label
_atom_site_type_symbol
_atom_site_fract_x
_atom_site_fract_y
_atom_site_fract_z
_atom_site_charge
C1       C      0.021980000000     0.009810000000     0.300590000000     0.399998   
C2       C      0.062550000000     0.035410000000     0.420320000000     0.40171    
C3       C      0.948410000000     0.938890000000     0.373100000000     0.401131   
C4       C      0.136220000000     0.105960000000     0.348030000000     0.400951   
C5       C      0.985380000000     0.488640000000     0.267950000000     0.40094    
C6       C      0.947130000000     0.419960000000     0.383370000000     0.402455   
C7       C      0.055150000000     0.539020000000     0.345280000000     0.400575   
C8       C      0.877280000000     0.369530000000     0.308700000000     0.399382   
C9       C      0.457510000000     0.955550000000     0.288660000000     0.403162   
C10      C      0.494800000000     0.971150000000     0.408650000000     0.401461   
C11      C      0.386440000000     0.871560000000     0.355940000000     0.40033    
C12      C      0.565150000000     0.054080000000     0.339150000000     0.399761   
C13      C      0.566080000000     0.542480000000     0.419530000000     0.402106   
C14      C      0.523110000000     0.499050000000     0.301010000000     0.402058   
C15      C      0.463050000000     0.426600000000     0.375670000000     0.401227   
C16      C      0.625720000000     0.614860000000     0.344860000000     0.401171   
C17      C      0.004010000000     0.015520000000     0.083520000000     0.400409   
C18      C      0.077750000000     0.060200000000     0.969490000000     0.403059   
C19      C      0.130640000000     0.043240000000     0.044190000000     0.398423   
C20      C      0.953510000000     0.033650000000     0.006610000000     0.399136   
C21      C      0.018430000000     0.578330000000     0.930680000000     0.400151   
C22      C      0.030700000000     0.566670000000     0.052060000000     0.40035    
C23      C      0.119030000000     0.583050000000     0.985730000000     0.402262   
C24      C      0.928750000000     0.561210000000     0.996990000000     0.401349   
C25      C      0.545500000000     0.032740000000     0.079040000000     0.402863   
C26      C      0.533790000000     0.056080000000     0.958860000000     0.40146    
C27      C      0.452210000000     0.049140000000     0.027620000000     0.398778   
C28      C      0.627300000000     0.039510000000     0.012270000000     0.399882   
C29      C      0.514880000000     0.565020000000     0.087040000000     0.40227    
C30      C      0.522010000000     0.565670000000     0.965140000000     0.400508   
C31      C      0.603880000000     0.554620000000     0.028760000000     0.400917   
C32      C      0.434830000000     0.576830000000     0.023530000000     0.401504   
C33      C      0.010300000000     0.933670000000     0.690910000000     0.401296   
C34      C      0.011220000000     0.116030000000     0.704720000000     0.400539   
C35      C      0.008120000000     0.034190000000     0.636540000000     0.401206   
C36      C      0.014250000000     0.015790000000     0.757330000000     0.402455   
C37      C      0.991460000000     0.607390000000     0.637270000000     0.403544   
C38      C      0.000480000000     0.433370000000     0.664170000000     0.401105   
C39      C      0.003180000000     0.543550000000     0.710930000000     0.39994    
C40      C      0.987340000000     0.496610000000     0.592000000000     0.402501   
C41      C      0.521200000000     0.064400000000     0.668510000000     0.401784   
C42      C      0.526680000000     0.891540000000     0.703760000000     0.401911   
C43      C      0.532510000000     0.007930000000     0.744400000000     0.400692   
C44      C      0.513980000000     0.946600000000     0.627780000000     0.401518   
C45      C      0.534710000000     0.392390000000     0.704880000000     0.401726   
C46      C      0.534110000000     0.570530000000     0.676360000000     0.401622   
C47      C      0.532310000000     0.459980000000     0.631270000000     0.401716   
C48      C      0.537350000000     0.503710000000     0.750220000000     0.400632   
C49      C      0.484480000000     0.616150000000     0.662870000000     0.0136697  
C50      C      0.577960000000     0.848330000000     0.718850000000     0.0135658  
C51      C      0.480850000000     0.796970000000     0.720210000000     0.013446   
C52      C      0.581480000000     0.807720000000     0.698160000000    -0.0997846  
C53      C      0.480940000000     0.655520000000     0.684560000000    -0.0998977  
C54      C      0.478380000000     0.753110000000     0.699630000000    -0.0997536  
C55      C      0.531720000000     0.709300000000     0.686540000000     0.0167946  
C56      C      0.530690000000     0.753830000000     0.696500000000     0.0168546  
C57      C      0.581740000000     0.666440000000     0.662600000000     0.0130765  
C58      C      0.583900000000     0.709650000000     0.683690000000    -0.0997315  
C59      C      0.471110000000     0.110590000000     0.657290000000     0.0133909  
C60      C      0.582880000000     0.343820000000     0.714860000000     0.0131518  
C61      C      0.486020000000     0.297000000000     0.719520000000     0.0137042  
C62      C      0.581280000000     0.302920000000     0.692090000000    -0.0996856  
C63      C      0.472930000000     0.152660000000     0.679200000000    -0.0996162  
C64      C      0.478600000000     0.253390000000     0.697040000000    -0.0998798  
C65      C      0.525540000000     0.205030000000     0.679580000000     0.016775   
C66      C      0.528610000000     0.250690000000     0.691170000000     0.0168544  
C67      C      0.567640000000     0.158410000000     0.651060000000     0.0134951  
C68      C      0.575620000000     0.202760000000     0.673120000000    -0.0996059  
C69      C      0.962330000000     0.835510000000     0.695720000000     0.0132839  
C70      C      0.035560000000     0.700110000000     0.617870000000     0.0140231  
C71      C      0.939920000000     0.652440000000     0.627450000000     0.013892   
C72      C      0.045600000000     0.746580000000     0.638630000000    -0.100274   
C73      C      0.951710000000     0.796630000000     0.669500000000    -0.0997242  
C74      C      0.943460000000     0.696080000000     0.648630000000    -0.099949   
C75      C      0.000450000000     0.793900000000     0.660150000000     0.0157645  
C76      C      0.996110000000     0.748330000000     0.647630000000     0.0179129  
C77      C      0.058460000000     0.884150000000     0.685650000000     0.0126811  
C78      C      0.052470000000     0.846680000000     0.659350000000    -0.0998762  
C79      C      0.059430000000     0.211610000000     0.718590000000     0.0116576  
C80      C      0.955480000000     0.337100000000     0.676550000000     0.011809   
C81      C      0.053620000000     0.388970000000     0.668060000000     0.0112739  
C82      C      0.964080000000     0.311750000000     0.705030000000    -0.10106    
C83      C      0.065100000000     0.259610000000     0.700620000000    -0.101013   
C84      C      0.062140000000     0.362110000000     0.695980000000    -0.101631   
C85      C      0.014070000000     0.261190000000     0.699870000000     0.0178808  
C86      C      0.013520000000     0.308110000000     0.701070000000     0.0176053  
C87      C      0.961690000000     0.163680000000     0.711750000000     0.0129506  
C88      C      0.965540000000     0.208540000000     0.691740000000    -0.101191   
C89      C      0.588630000000     0.551840000000     0.796210000000     0.0109389  
C90      C      0.480320000000     0.519760000000     0.916710000000     0.0124275  
C91      C      0.556210000000     0.614020000000     0.916100000000     0.0114166  
C92      C      0.504390000000     0.505470000000     0.890040000000    -0.101609   
C93      C      0.580960000000     0.587860000000     0.818960000000    -0.101906   
C94      C      0.580430000000     0.601140000000     0.888460000000    -0.101886   
C95      C      0.534490000000     0.554110000000     0.839550000000     0.0184249  
C96      C      0.538290000000     0.554230000000     0.870730000000     0.018731   
C97      C      0.492180000000     0.482650000000     0.800450000000     0.0118198  
C98      C      0.484080000000     0.518850000000     0.822330000000    -0.101519   
C99      C      0.587660000000     0.060060000000     0.788490000000     0.0103385  
C100     C      0.486930000000     0.019280000000     0.909980000000     0.0128556  
C101     C      0.564600000000     0.112310000000     0.912140000000     0.0112693  
C102     C      0.509240000000     0.007530000000     0.881470000000    -0.101369   
C103     C      0.582200000000     0.096690000000     0.811990000000    -0.101969   
C104     C      0.587040000000     0.102470000000     0.882540000000    -0.101932   
C105     C      0.536810000000     0.063490000000     0.833380000000     0.0187133  
C106     C      0.543380000000     0.058480000000     0.863900000000     0.0190491  
C107     C      0.491010000000     0.991880000000     0.795430000000     0.0118388  
C108     C      0.485380000000     0.029910000000     0.816950000000    -0.101708   
C109     C      0.831780000000     0.503500000000     0.994510000000     0.0117749  
C110     C      0.700680000000     0.597160000000     0.031240000000     0.0132822  
C111     C      0.643940000000     0.497370000000     0.035070000000     0.0109997  
C112     C      0.735790000000     0.590680000000     0.008130000000    -0.104068   
C113     C      0.788970000000     0.491950000000     0.018480000000    -0.102746   
C114     C      0.683240000000     0.490580000000     0.014840000000    -0.103896   
C115     C      0.782570000000     0.540330000000     0.022220000000     0.0178157  
C116     C      0.737130000000     0.540440000000     0.015490000000     0.0196997  
C117     C      0.873330000000     0.602210000000     0.004950000000     0.00893626 
C118     C      0.833520000000     0.589970000000     0.030520000000    -0.100683   
C119     C      0.215810000000     0.640450000000     0.979880000000     0.0126032  
C120     C      0.338970000000     0.535910000000     0.015680000000     0.0112542  
C121     C      0.394390000000     0.634170000000     0.026950000000     0.0112127  
C122     C      0.314020000000     0.548560000000     0.988800000000    -0.101236   
C123     C      0.259300000000     0.646310000000     0.001970000000    -0.104259   
C124     C      0.364430000000     0.646280000000     0.002200000000    -0.105435   
C125     C      0.264320000000     0.596660000000     0.001460000000     0.0169932  
C126     C      0.310820000000     0.597620000000     0.996660000000     0.0218119  
C127     C      0.173930000000     0.540750000000     0.981740000000     0.0140301  
C128     C      0.212610000000     0.545640000000     0.006470000000    -0.102591   
C129     C      0.044030000000     0.633370000000     0.883900000000     0.0123703  
C130     C      0.960140000000     0.523220000000     0.761700000000     0.012332   
C131     C      0.057640000000     0.588250000000     0.756780000000     0.0105151  
C132     C      0.955150000000     0.560090000000     0.784550000000    -0.101576   
C133     C      0.057960000000     0.628050000000     0.850650000000    -0.102051   
C134     C      0.053350000000     0.623900000000     0.781400000000    -0.101485   
C135     C      0.009810000000     0.587920000000     0.832990000000     0.0171495  
C136     C      0.006270000000     0.591100000000     0.801890000000     0.0178682  
C137     C      0.986120000000     0.532650000000     0.881170000000     0.0134536  
C138     C      0.965660000000     0.543770000000     0.851390000000    -0.101596   
C139     C      0.864750000000     0.984110000000     0.983020000000     0.0119391  
C140     C      0.723470000000     0.083480000000     0.018830000000     0.01053    
C141     C      0.670520000000     0.984990000000     0.011260000000     0.010115   
C142     C      0.766620000000     0.087510000000     0.997660000000    -0.097481   
C143     C      0.813240000000     0.981380000000     0.993070000000    -0.0977343  
C144     C      0.713680000000     0.985940000000     0.991020000000    -0.0992653  
C145     C      0.813640000000     0.034370000000     0.993200000000     0.0168006  
C146     C      0.767350000000     0.035420000000     0.995850000000     0.0170697  
C147     C      0.912850000000     0.082540000000     0.984280000000     0.0139375  
C148     C      0.866290000000     0.085460000000     0.997190000000    -0.0980583  
C149     C      0.411260000000     0.101830000000     0.043590000000     0.0105599  
C150     C      0.181870000000     0.997820000000     0.048950000000     0.0111838  
C151     C      0.225670000000     0.099920000000     0.053010000000     0.00992737 
C152     C      0.227400000000     0.001790000000     0.067870000000    -0.101949   
C153     C      0.364590000000     0.107340000000     0.032560000000    -0.102635   
C154     C      0.271190000000     0.100000000000     0.070350000000    -0.101981   
C155     C      0.313670000000     0.056680000000     0.039540000000     0.0208973  
C156     C      0.276290000000     0.053210000000     0.059820000000     0.0198959  
C157     C      0.356200000000     0.001560000000     0.036120000000     0.0121137  
C158     C      0.311600000000     0.009100000000     0.023950000000    -0.104043   
C159     C      0.054410000000     0.997930000000     0.802000000000     0.0139999  
C160     C      0.092390000000     0.114490000000     0.923270000000     0.0120272  
C161     C      0.107600000000     0.036960000000     0.921960000000     0.0142234  
C162     C      0.050870000000     0.090090000000     0.897850000000    -0.101092   
C163     C      0.087500000000     0.039620000000     0.825860000000    -0.10173    
C164     C      0.069170000000     0.011960000000     0.895350000000    -0.100789   
C165     C      0.052680000000     0.049000000000     0.847580000000     0.0189162  
C166     C      0.061290000000     0.053130000000     0.878290000000     0.0176307  
C167     C      0.980690000000     0.017700000000     0.808890000000     0.0131568  
C168     C      0.013200000000     0.061070000000     0.832610000000    -0.102856   
C169     C      0.484470000000     0.435310000000     0.581730000000     0.0118282  
C170     C      0.616710000000     0.545570000000     0.465780000000     0.0134155  
C171     C      0.543080000000     0.564570000000     0.470020000000     0.0118629  
C172     C      0.591140000000     0.500630000000     0.489200000000    -0.101045   
C173     C      0.496920000000     0.478760000000     0.557750000000    -0.10045    
C174     C      0.515020000000     0.520280000000     0.493900000000    -0.100549   
C175     C      0.547520000000     0.493430000000     0.540440000000     0.0172493  
C176     C      0.553570000000     0.507820000000     0.510170000000     0.0172442  
C177     C      0.578380000000     0.458660000000     0.583920000000     0.0135853  
C178     C      0.594100000000     0.503010000000     0.560410000000    -0.101044   
C179     C      0.462400000000     0.529300000000     0.134180000000     0.0132473  
C180     C      0.554360000000     0.490930000000     0.249890000000     0.0123748  
C181     C      0.464670000000     0.480410000000     0.256170000000     0.0133158  
C182     C      0.568970000000     0.534080000000     0.225450000000    -0.101491   
C183     C      0.471160000000     0.498620000000     0.159710000000    -0.101207   
C184     C      0.475590000000     0.520180000000     0.230320000000    -0.101161   
C185     C      0.518870000000     0.534860000000     0.178970000000     0.0183038  
C186     C      0.519640000000     0.525940000000     0.209510000000     0.0179278  
C187     C      0.557100000000     0.602030000000     0.136900000000     0.0127395  
C188     C      0.568620000000     0.571120000000     0.161310000000    -0.101724   
C189     C      0.456720000000     0.904580000000     0.582700000000     0.0128074  
C190     C      0.549050000000     0.971870000000     0.452430000000     0.0120236  
C191     C      0.476900000000     0.993080000000     0.460440000000     0.0123248  
C192     C      0.531250000000     0.935820000000     0.480670000000    -0.101251   
C193     C      0.458520000000     0.937130000000     0.554730000000    -0.100907   
C194     C      0.456190000000     0.955600000000     0.488050000000    -0.101412   
C195     C      0.504030000000     0.947270000000     0.533850000000     0.0172257  
C196     C      0.500130000000     0.950100000000     0.502740000000     0.0179965  
C197     C      0.552890000000     0.937170000000     0.579110000000     0.0121226  
C198     C      0.557080000000     0.967810000000     0.549640000000    -0.10082    
C199     C      0.433810000000     0.987710000000     0.242070000000     0.0117432  
C200     C      0.537020000000     0.975210000000     0.123090000000     0.013575   
C201     C      0.561020000000     0.070040000000     0.131580000000     0.0117444  
C202     C      0.490690000000     0.955850000000     0.145030000000    -0.101465   
C203     C      0.476870000000     0.022540000000     0.219040000000    -0.100728   
C204     C      0.515670000000     0.052960000000     0.154510000000    -0.10118    
C205     C      0.490150000000     0.988390000000     0.198630000000     0.0174325  
C206     C      0.500570000000     0.998980000000     0.168190000000     0.0178863  
C207     C      0.456980000000     0.916030000000     0.238190000000     0.013462   
C208     C      0.500660000000     0.948530000000     0.215280000000    -0.101115   
C209     C      0.027540000000     0.491260000000     0.543020000000     0.010598   
C210     C      0.897170000000     0.404880000000     0.431700000000     0.0132261  
C211     C      0.968210000000     0.381590000000     0.428210000000     0.0117785  
C212     C      0.922750000000     0.439500000000     0.459830000000    -0.100839   
C213     C      0.012620000000     0.440610000000     0.524360000000    -0.102076   
C214     C      0.996300000000     0.415820000000     0.456330000000    -0.10006    
C215     C      0.961320000000     0.423460000000     0.507580000000     0.0187888  
C216     C      0.957950000000     0.422900000000     0.476390000000     0.0178108  
C217     C      0.931970000000     0.466350000000     0.545430000000     0.0128041  
C218     C      0.916620000000     0.414880000000     0.528410000000    -0.10186    
C219     C      0.608980000000     0.150640000000     0.329320000000     0.0109178  
C220     C      0.830180000000     0.273440000000     0.298890000000     0.0108143  
C221     C      0.781210000000     0.326470000000     0.305660000000     0.0109682  
C222     C      0.780290000000     0.229730000000     0.283660000000    -0.10234    
C223     C      0.661250000000     0.199400000000     0.338340000000    -0.102557   
C224     C      0.733790000000     0.280100000000     0.290100000000    -0.10244    
C225     C      0.705520000000     0.197090000000     0.322080000000     0.0216086  
C226     C      0.733670000000     0.229610000000     0.298160000000     0.0208861  
C227     C      0.657670000000     0.098860000000     0.322310000000     0.0112359  
C228     C      0.708480000000     0.148730000000     0.331860000000    -0.102791   
C229     C      0.338710000000     0.774110000000     0.349680000000     0.0122451  
C230     C      0.097390000000     0.623800000000     0.373950000000     0.0132504  
C231     C      0.145530000000     0.575070000000     0.365060000000     0.0129624  
C232     C      0.145430000000     0.677390000000     0.366170000000    -0.100221   
C233     C      0.297700000000     0.727920000000     0.368850000000    -0.101361   
C234     C      0.196770000000     0.626410000000     0.357880000000    -0.100033   
C235     C      0.244520000000     0.725170000000     0.368390000000     0.0175894  
C236     C      0.197560000000     0.677740000000     0.366680000000     0.0171869  
C237     C      0.289430000000     0.823520000000     0.355910000000     0.0120495  
C238     C      0.247400000000     0.778090000000     0.375140000000    -0.101222   
C239     C      0.051370000000     0.610920000000     0.102800000000     0.0113583  
C240     C      0.004660000000     0.473390000000     0.215030000000     0.0110804  
C241     C      0.978690000000     0.542870000000     0.226290000000     0.0114074  
C242     C      0.044260000000     0.510510000000     0.191440000000    -0.101754   
C243     C      0.018570000000     0.596040000000     0.132360000000    -0.102069   
C244     C      0.017320000000     0.579420000000     0.201630000000    -0.102522   
C245     C      0.017100000000     0.548230000000     0.147360000000     0.0179719  
C246     C      0.025840000000     0.546330000000     0.177960000000     0.0189486  
C247     C      0.033360000000     0.516780000000     0.097370000000     0.0115112  
C248     C      0.999750000000     0.500780000000     0.126310000000    -0.100575   
C249     C      0.084920000000     0.090640000000     0.467110000000     0.013425   
C250     C      0.967490000000     0.995260000000     0.586600000000     0.0122038  
C251     C      0.043460000000     0.089030000000     0.589950000000     0.0131371  
C252     C      0.995180000000     0.982260000000     0.560960000000    -0.100707   
C253     C      0.047170000000     0.080150000000     0.493720000000    -0.10121    
C254     C      0.071230000000     0.078820000000     0.563480000000    -0.100976   
C255     C      0.039320000000     0.033080000000     0.512920000000     0.0183391  
C256     C      0.032620000000     0.032600000000     0.543790000000     0.0176088  
C257     C      0.067680000000     0.996750000000     0.469720000000     0.0121749  
C258     C      0.026910000000     0.983170000000     0.495270000000    -0.10212    
C259     C      0.664350000000     0.711360000000     0.333400000000     0.012347   
C260     C      0.895660000000     0.844080000000     0.387640000000     0.0146253  
C261     C      0.852900000000     0.898910000000     0.384530000000     0.0121015  
C262     C      0.857490000000     0.802800000000     0.365180000000    -0.100079   
C263     C      0.707710000000     0.756410000000     0.352600000000    -0.099639   
C264     C      0.808000000000     0.856880000000     0.364650000000    -0.0995047  
C265     C      0.760820000000     0.758240000000     0.352710000000     0.0168423  
C266     C      0.805730000000     0.803030000000     0.362550000000     0.0167647  
C267     C      0.717560000000     0.667690000000     0.326660000000     0.0147487  
C268     C      0.760750000000     0.706000000000     0.348120000000    -0.100075   
C269     C      0.371860000000     0.374350000000     0.394960000000     0.0146115  
C270     C      0.231460000000     0.145010000000     0.336210000000     0.0121966  
C271     C      0.190060000000     0.201220000000     0.334440000000     0.0140928  
C272     C      0.277000000000     0.185940000000     0.356120000000    -0.099681   
C273     C      0.327660000000     0.337110000000     0.373690000000    -0.0999434  
C274     C      0.229360000000     0.241740000000     0.356850000000    -0.0999821  
C275     C      0.326340000000     0.284460000000     0.368290000000     0.0167953  
C276     C      0.280610000000     0.240330000000     0.358680000000     0.0168024  
C277     C      0.423690000000     0.329700000000     0.386170000000     0.0122751  
C278     C      0.378910000000     0.285160000000     0.367410000000    -0.0995447  
C279     C      0.024040000000     0.968700000000     0.251250000000     0.0103155  
C280     C      0.982800000000     0.044210000000     0.132470000000     0.0132204  
C281     C      0.960690000000     0.949640000000     0.125220000000     0.0118021  
C282     C      0.007920000000     0.046680000000     0.163530000000    -0.101767   
C283     C      0.983110000000     0.941370000000     0.225680000000    -0.101384   
C284     C      0.985300000000     0.949780000000     0.156280000000    -0.100971   
C285     C      0.976360000000     0.982670000000     0.208210000000     0.0182437  
C286     C      0.985930000000     0.991560000000     0.177490000000     0.0184768  
C287     C      0.002790000000     0.043260000000     0.253060000000     0.0107268  
C288     C      0.961070000000     0.014990000000     0.228450000000    -0.100852   
Cu1      Cu     0.060910000000     0.992750000000     0.359130000000     0.838397   
Cu2      Cu     0.023570000000     0.052190000000     0.361910000000     0.838381   
Cu3      Cu     0.942820000000     0.479260000000     0.330000000000     0.839187   
Cu4      Cu     0.990490000000     0.430470000000     0.321690000000     0.841789   
Cu5      Cu     0.499860000000     0.938370000000     0.345670000000     0.840057   
Cu6      Cu     0.452180000000     0.987680000000     0.351530000000     0.841526   
Cu7      Cu     0.515520000000     0.540200000000     0.361110000000     0.837863   
Cu8      Cu     0.573320000000     0.501210000000     0.359410000000     0.840771   
Cu9      Cu     0.022440000000     0.989980000000     0.021320000000     0.834436   
Cu10     Cu     0.060140000000     0.085840000000     0.031620000000     0.841179   
Cu11     Cu     0.044100000000     0.621100000000     0.993200000000     0.838565   
Cu12     Cu     0.003950000000     0.523630000000     0.989540000000     0.843981   
Cu13     Cu     0.566110000000     0.093170000000     0.021940000000     0.838016   
Cu14     Cu     0.513280000000     0.995780000000     0.016080000000     0.838914   
Cu15     Cu     0.490330000000     0.516780000000     0.025930000000     0.84068    
Cu16     Cu     0.548050000000     0.614260000000     0.026400000000     0.838431   
Cu17     Cu     0.962590000000     0.000730000000     0.697870000000     0.839993   
Cu18     Cu     0.059320000000     0.049400000000     0.696140000000     0.838687   
Cu19     Cu     0.947450000000     0.495100000000     0.653730000000     0.845201   
Cu20     Cu     0.044050000000     0.545900000000     0.648960000000     0.83752    
Cu21     Cu     0.475460000000     0.953380000000     0.688580000000     0.844801   
Cu22     Cu     0.572020000000     0.002220000000     0.683450000000     0.83409    
Cu23     Cu     0.486190000000     0.457280000000     0.691420000000     0.84071    
Cu24     Cu     0.583140000000     0.506010000000     0.690060000000     0.83755    
H1       H      0.447750000000     0.659780000000     0.675860000000     0.0423171  
H2       H      0.579200000000     0.837180000000     0.743110000000     0.0259258  
H3       H      0.581710000000     0.678680000000     0.638440000000     0.0258814  
H4       H      0.615250000000     0.747800000000     0.674090000000     0.0423243  
H5       H      0.614420000000     0.803610000000     0.707460000000     0.0423188  
H6       H      0.447650000000     0.715230000000     0.709860000000     0.0423183  
H7       H      0.448950000000     0.576370000000     0.665780000000     0.0349514  
H8       H      0.613030000000     0.888110000000     0.715020000000     0.0354278  
H9       H      0.596130000000     0.704550000000     0.706960000000     0.0505419  
H10      H      0.465230000000     0.757090000000     0.676390000000     0.0512002  
H11      H      0.617910000000     0.663900000000     0.665960000000     0.0350511  
H12      H      0.482220000000     0.786000000000     0.744490000000     0.0259347  
H13      H      0.470830000000     0.637910000000     0.707900000000     0.0514499  
H14      H      0.591950000000     0.824260000000     0.674590000000     0.0514662  
H15      H      0.444230000000     0.798800000000     0.717230000000     0.0351971  
H16      H      0.484200000000     0.629140000000     0.638910000000     0.0254518  
H17      H      0.440360000000     0.159090000000     0.671890000000     0.0423971  
H18      H      0.585860000000     0.330860000000     0.738420000000     0.0261888  
H19      H      0.563000000000     0.170180000000     0.627500000000     0.0259123  
H20      H      0.606340000000     0.240200000000     0.662470000000     0.0423222  
H21      H      0.613820000000     0.296120000000     0.698960000000     0.0421863  
H22      H      0.447040000000     0.215810000000     0.707080000000     0.0423455  
H23      H      0.435710000000     0.071630000000     0.662370000000     0.0350076  
H24      H      0.618860000000     0.382750000000     0.710660000000     0.0352672  
H25      H      0.590970000000     0.197070000000     0.695230000000     0.0512361  
H26      H      0.464460000000     0.260180000000     0.674800000000     0.0519184  
H27      H      0.603430000000     0.154610000000     0.651090000000     0.0352348  
H28      H      0.488990000000     0.283940000000     0.743040000000     0.025768   
H29      H      0.464570000000     0.136110000000     0.702820000000     0.0510519  
H30      H      0.589750000000     0.320600000000     0.668740000000     0.0509521  
H31      H      0.450610000000     0.301460000000     0.718990000000     0.0351545  
H32      H      0.466820000000     0.121780000000     0.633520000000     0.0257163  
H33      H      0.919380000000     0.757940000000     0.677770000000     0.0422155  
H34      H      0.028230000000     0.709270000000     0.594230000000     0.0253373  
H35      H      0.066240000000     0.868520000000     0.707100000000     0.0264024  
H36      H      0.087040000000     0.841130000000     0.661210000000     0.0421012  
H37      H      0.073360000000     0.782940000000     0.625800000000     0.0422027  
H38      H      0.910790000000     0.702580000000     0.641580000000     0.0422152  
H39      H      0.927000000000     0.839510000000     0.699140000000     0.0358128  
H40      H      0.071510000000     0.696610000000     0.616990000000     0.0351404  
H41      H      0.055020000000     0.866670000000     0.637180000000     0.0500223  
H42      H      0.936370000000     0.681000000000     0.672570000000     0.050842   
H43      H      0.093360000000     0.923770000000     0.681130000000     0.0353098  
H44      H      0.933270000000     0.661530000000     0.603640000000     0.025578   
H45      H      0.937390000000     0.808870000000     0.649230000000     0.0507897  
H46      H      0.065220000000     0.744380000000     0.659910000000     0.0512964  
H47      H      0.905260000000     0.613860000000     0.634040000000     0.0349925  
H48      H      0.968170000000     0.818190000000     0.717090000000     0.0267161  
H49      H      0.097130000000     0.294770000000     0.712320000000     0.0424094  
H50      H      0.947350000000     0.310040000000     0.656710000000     0.0279169  
H51      H      0.954800000000     0.171090000000     0.735860000000     0.0270545  
H52      H      0.927820000000     0.207950000000     0.693300000000     0.0431699  
H53      H      0.928110000000     0.274140000000     0.710740000000     0.0424914  
H54      H      0.098570000000     0.360910000000     0.691520000000     0.0424421  
H55      H      0.095420000000     0.208850000000     0.714960000000     0.0357685  
H56      H      0.920230000000     0.341140000000     0.680280000000     0.03556    
H57      H      0.969230000000     0.199470000000     0.667420000000     0.0526932  
H58      H      0.069090000000     0.387230000000     0.716600000000     0.0506496  
H59      H      0.927020000000     0.125780000000     0.704280000000     0.0359215  
H60      H      0.052820000000     0.366590000000     0.647180000000     0.0274122  
H61      H      0.077520000000     0.258300000000     0.676730000000     0.0499566  
H62      H      0.970090000000     0.338130000000     0.724930000000     0.0514806  
H63      H      0.088010000000     0.429700000000     0.665900000000     0.0362589  
H64      H      0.057480000000     0.219080000000     0.743430000000     0.0267617  
H65      H      0.618380000000     0.610790000000     0.831700000000     0.0428114  
H66      H      0.451650000000     0.530490000000     0.907330000000     0.0265902  
H67      H      0.498540000000     0.454140000000     0.814240000000     0.0273237  
H68      H      0.449450000000     0.495340000000     0.837160000000     0.0429881  
H69      H      0.473060000000     0.471500000000     0.877260000000     0.0434546  
H70      H      0.600130000000     0.637780000000     0.874330000000     0.0428419  
H71      H      0.619560000000     0.577610000000     0.779530000000     0.0357664  
H72      H      0.458010000000     0.484020000000     0.931340000000     0.0358443  
H73      H      0.474140000000     0.544810000000     0.808540000000     0.051837   
H74      H      0.610570000000     0.591480000000     0.896490000000     0.0500232  
H75      H      0.455620000000     0.459090000000     0.786950000000     0.0359262  
H76      H      0.532720000000     0.631750000000     0.907520000000     0.0287177  
H77      H      0.573450000000     0.616490000000     0.806170000000     0.049852   
H78      H      0.530040000000     0.490910000000     0.899490000000     0.0528739  
H79      H      0.588640000000     0.644470000000     0.930380000000     0.0352902  
H80      H      0.603350000000     0.528800000000     0.809030000000     0.0291449  
H81      H      0.620390000000     0.119560000000     0.823960000000     0.0427178  
H82      H      0.459270000000     0.032800000000     0.902610000000     0.0267214  
H83      H      0.497470000000     0.963520000000     0.809300000000     0.0273592  
H84      H      0.451220000000     0.008370000000     0.832450000000     0.0431173  
H85      H      0.476960000000     0.975710000000     0.867960000000     0.0434678  
H86      H      0.606990000000     0.140760000000     0.869930000000     0.0428621  
H87      H      0.616660000000     0.085360000000     0.770800000000     0.0353543  
H88      H      0.463850000000     0.981900000000     0.923180000000     0.0356472  
H89      H      0.476510000000     0.056550000000     0.803040000000     0.0518052  
H90      H      0.616710000000     0.090830000000     0.888400000000     0.0504602  
H91      H      0.453340000000     0.968290000000     0.782930000000     0.0362692  
H92      H      0.541490000000     0.131770000000     0.905940000000     0.028761   
H93      H      0.574320000000     0.125510000000     0.799720000000     0.0493448  
H94      H      0.534390000000     0.990950000000     0.888780000000     0.0533294  
H95      H      0.597920000000     0.140400000000     0.926810000000     0.0356809  
H96      H      0.603930000000     0.037600000000     0.800420000000     0.0294887  
H97      H      0.753000000000     0.455810000000     0.010770000000     0.0424329  
H98      H      0.717780000000     0.601580000000     0.054540000000     0.0271561  
H99      H      0.858670000000     0.611290000000     0.983590000000     0.0297995  
H100     H      0.829830000000     0.625120000000     0.036050000000     0.0425108  
H101     H      0.774480000000     0.627400000000     0.006850000000     0.0434732  
H102     H      0.683390000000     0.454880000000     0.023550000000     0.0429924  
H103     H      0.839810000000     0.469970000000     0.994560000000     0.0366087  
H104     H      0.700560000000     0.634480000000     0.025860000000     0.0358581  
H105     H      0.849050000000     0.581910000000     0.051860000000     0.0513284  
H106     H      0.668750000000     0.482630000000     0.990820000000     0.0514426  
H107     H      0.910720000000     0.638320000000     0.011410000000     0.0359374  
H108     H      0.653040000000     0.494250000000     0.059470000000     0.0276459  
H109     H      0.800680000000     0.482690000000     0.040840000000     0.0501243  
H110     H      0.718420000000     0.586250000000     0.984920000000     0.054188   
H111     H      0.603770000000     0.463780000000     0.030430000000     0.0356498  
H112     H      0.815830000000     0.504170000000     0.971500000000     0.0281334  
H113     H      0.295540000000     0.682670000000     0.994750000000     0.0442624  
H114     H      0.313720000000     0.527440000000     0.036290000000     0.027763   
H115     H      0.189780000000     0.538670000000     0.958950000000     0.0275088  
H116     H      0.214910000000     0.508880000000     0.007680000000     0.0427779  
H117     H      0.276570000000     0.513380000000     0.981890000000     0.0434263  
H118     H      0.362900000000     0.681650000000     0.010100000000     0.0430512  
H119     H      0.208450000000     0.673970000000     0.983770000000     0.0360418  
H120     H      0.340430000000     0.499350000000     0.010120000000     0.0358541  
H121     H      0.196700000000     0.548230000000     0.029130000000     0.0526486  
H122     H      0.387200000000     0.657060000000     0.980480000000     0.0520392  
H123     H      0.136450000000     0.502910000000     0.985270000000     0.0359656  
H124     H      0.376110000000     0.632670000000     0.049520000000     0.0276724  
H125     H      0.249620000000     0.652640000000     0.025650000000     0.0506922  
H126     H      0.339980000000     0.557640000000     0.968470000000     0.0525554  
H127     H      0.435540000000     0.667680000000     0.027890000000     0.0359811  
H128     H      0.230740000000     0.644290000000     0.956050000000     0.0272626  
H129     H      0.075180000000     0.668110000000     0.840060000000     0.0430314  
H130     H      0.964910000000     0.492880000000     0.774620000000     0.0271948  
H131     H      0.952080000000     0.501710000000     0.894310000000     0.0339158  
H132     H      0.935670000000     0.555190000000     0.856830000000     0.0499541  
H133     H      0.920240000000     0.537020000000     0.799300000000     0.0426147  
H134     H      0.091160000000     0.643870000000     0.794010000000     0.0426368  
H135     H      0.080830000000     0.661040000000     0.896280000000     0.0337851  
H136     H      0.922790000000     0.501820000000     0.748630000000     0.0361665  
H137     H      0.946730000000     0.505980000000     0.838190000000     0.0437958  
H138     H      0.048280000000     0.655290000000     0.770040000000     0.049562   
H139     H      0.012050000000     0.516090000000     0.875610000000     0.0306771  
H140     H      0.071140000000     0.562800000000     0.768010000000     0.0287918  
H141     H      0.087880000000     0.615320000000     0.850470000000     0.0500885  
H142     H      0.947570000000     0.588660000000     0.771720000000     0.0518854  
H143     H      0.088340000000     0.614120000000     0.740020000000     0.0356335  
H144     H      0.018570000000     0.651600000000     0.884090000000     0.0311833  
H145     H      0.782780000000     0.952850000000     0.977110000000     0.041996   
H146     H      0.734010000000     0.079910000000     0.042860000000     0.0285151  
H147     H      0.910960000000     0.083250000000     0.958810000000     0.0247485  
H148     H      0.866730000000     0.119040000000     0.984800000000     0.0420919  
H149     H      0.803330000000     0.120940000000     0.006990000000     0.0407388  
H150     H      0.713500000000     0.948580000000     0.996280000000     0.0426349  
H151     H      0.864740000000     0.947950000000     0.991380000000     0.0356048  
H152     H      0.722670000000     0.121250000000     0.017130000000     0.036156   
H153     H      0.872910000000     0.095250000000     0.022000000000     0.0507899  
H154     H      0.702540000000     0.984540000000     0.966560000000     0.0500317  
H155     H      0.949720000000     0.118750000000     0.991310000000     0.0354224  
H156     H      0.676270000000     0.975340000000     0.035110000000     0.0281154  
H157     H      0.803420000000     0.964510000000     0.016590000000     0.0482136  
H158     H      0.760600000000     0.098540000000     0.974240000000     0.0502213  
H159     H      0.631930000000     0.952220000000     0.003240000000     0.0358398  
H160     H      0.865700000000     0.983430000000     0.957540000000     0.0264663  
H161     H      0.368340000000     0.143800000000     0.042730000000     0.0430495  
H162     H      0.187580000000     0.990930000000     0.024530000000     0.0302871  
H163     H      0.348520000000     0.989650000000     0.060640000000     0.0284146  
H164     H      0.273730000000     0.971590000000     0.025800000000     0.0433582  
H165     H      0.230910000000     0.965820000000     0.065330000000     0.0425566  
H166     H      0.306820000000     0.139280000000     0.067930000000     0.0425529  
H167     H      0.448000000000     0.137030000000     0.035370000000     0.0360991  
H168     H      0.145070000000     0.962320000000     0.056890000000     0.034758   
H169     H      0.317560000000     0.017170000000     0.998930000000     0.0528527  
H170     H      0.262040000000     0.095820000000     0.095270000000     0.0487163  
H171     H      0.355730000000     0.968270000000     0.023290000000     0.0350107  
H172     H      0.239010000000     0.114630000000     0.029330000000     0.030632   
H173     H      0.367800000000     0.113810000000     0.007360000000     0.050326   
H174     H      0.218210000000     0.002280000000     0.092560000000     0.0495347  
H175     H      0.216950000000     0.128990000000     0.064280000000     0.0356541  
H176     H      0.412180000000     0.103150000000     0.069060000000     0.0284566  
H177     H      0.113910000000     0.028100000000     0.837400000000     0.04327    
H178     H      0.131330000000     0.141050000000     0.912610000000     0.0280052  
H179     H      0.955220000000     0.979770000000     0.821190000000     0.0286473  
H180     H      0.985460000000     0.061960000000     0.849580000000     0.0437466  
H181     H      0.052980000000     0.123240000000     0.884000000000     0.0428678  
H182     H      0.082620000000     0.990060000000     0.880620000000     0.0431667  
H183     H      0.080560000000     0.995060000000     0.784610000000     0.0333676  
H184     H      0.082490000000     0.138950000000     0.938480000000     0.0343747  
H185     H      0.034430000000     0.100460000000     0.821140000000     0.0507237  
H186     H      0.030460000000     0.981730000000     0.904790000000     0.0545741  
H187     H      0.954960000000     0.029150000000     0.796260000000     0.0334396  
H188     H      0.147720000000     0.061470000000     0.912250000000     0.0256895  
H189     H      0.113560000000     0.077660000000     0.813860000000     0.053889   
H190     H      0.011030000000     0.067390000000     0.908160000000     0.0509243  
H191     H      0.107650000000     0.005260000000     0.936230000000     0.0331622  
H192     H      0.032710000000     0.958740000000     0.813700000000     0.0258451  
H193     H      0.462520000000     0.462900000000     0.542110000000     0.042664   
H194     H      0.643600000000     0.582900000000     0.478210000000     0.0260144  
H195     H      0.569260000000     0.421610000000     0.571460000000     0.0259593  
H196     H      0.628670000000     0.507540000000     0.547870000000     0.0428402  
H197     H      0.622710000000     0.497550000000     0.500980000000     0.0428425  
H198     H      0.495550000000     0.534390000000     0.510160000000     0.0427212  
H199     H      0.450100000000     0.429170000000     0.595540000000     0.0354326  
H200     H      0.640950000000     0.537300000000     0.449600000000     0.0347096  
H201     H      0.607660000000     0.541040000000     0.572900000000     0.053941   
H202     H      0.484270000000     0.483690000000     0.482440000000     0.0508028  
H203     H      0.612100000000     0.468580000000     0.599410000000     0.0345714  
H204     H      0.568620000000     0.602500000000     0.482320000000     0.0272709  
H205     H      0.501110000000     0.514820000000     0.569270000000     0.0507843  
H206     H      0.567850000000     0.462550000000     0.476640000000     0.0540088  
H207     H      0.513230000000     0.569380000000     0.457010000000     0.0355115  
H208     H      0.473360000000     0.397510000000     0.569510000000     0.0272752  
H209     H      0.434440000000     0.476560000000     0.173130000000     0.0431263  
H210     H      0.538270000000     0.451720000000     0.238290000000     0.0281312  
H211     H      0.547530000000     0.630180000000     0.148570000000     0.0288708  
H212     H      0.599730000000     0.600650000000     0.176650000000     0.0432777  
H213     H      0.596450000000     0.531250000000     0.209080000000     0.043122   
H214     H      0.438390000000     0.508620000000     0.218080000000     0.0431246  
H215     H      0.431480000000     0.500840000000     0.118320000000     0.0339356  
H216     H      0.590600000000     0.499030000000     0.262380000000     0.034682   
H217     H      0.583610000000     0.546910000000     0.150150000000     0.0506822  
H218     H      0.488220000000     0.559700000000     0.240730000000     0.0533246  
H219     H      0.593000000000     0.625500000000     0.122790000000     0.0335568  
H220     H      0.444440000000     0.439820000000     0.246080000000     0.0258641  
H221     H      0.478420000000     0.468120000000     0.149050000000     0.0530107  
H222     H      0.589370000000     0.574030000000     0.236340000000     0.0511019  
H223     H      0.437380000000     0.482350000000     0.273090000000     0.0337466  
H224     H      0.447390000000     0.553940000000     0.144790000000     0.0262825  
H225     H      0.420070000000     0.913890000000     0.542930000000     0.0428446  
H226     H      0.580570000000     0.012030000000     0.459630000000     0.0270969  
H227     H      0.546140000000     0.897240000000     0.572540000000     0.0264545  
H228     H      0.587610000000     0.967410000000     0.535080000000     0.0428593  
H229     H      0.565970000000     0.936490000000     0.490850000000     0.0428775  
H230     H      0.439290000000     0.972820000000     0.504060000000     0.0430448  
H231     H      0.424390000000     0.899760000000     0.597980000000     0.0359135  
H232     H      0.566600000000     0.956520000000     0.435580000000     0.0355581  
H233     H      0.571940000000     0.010110000000     0.555790000000     0.0525279  
H234     H      0.424330000000     0.915800000000     0.480630000000     0.0507471  
H235     H      0.590870000000     0.957950000000     0.591640000000     0.0353544  
H236     H      0.504400000000     0.034010000000     0.468780000000     0.0284815  
H237     H      0.463010000000     0.975750000000     0.562260000000     0.0515483  
H238     H      0.505010000000     0.894240000000     0.472950000000     0.0522011  
H239     H      0.443170000000     0.993580000000     0.449250000000     0.0357682  
H240     H      0.447200000000     0.864260000000     0.574870000000     0.0270401  
H241     H      0.461670000000     0.044470000000     0.205590000000     0.0427707  
H242     H      0.571770000000     0.980670000000     0.136300000000     0.0261989  
H243     H      0.420380000000     0.890090000000     0.225150000000     0.0261033  
H244     H      0.506170000000     0.921080000000     0.200290000000     0.0431539  
H245     H      0.482000000000     0.917320000000     0.154960000000     0.043191   
H246     H      0.529350000000     0.084600000000     0.172200000000     0.0428037  
H247     H      0.427700000000     0.013850000000     0.258110000000     0.0359186  
H248     H      0.528240000000     0.944300000000     0.105430000000     0.0349387  
H249     H      0.538140000000     0.971350000000     0.228120000000     0.0536911  
H250     H      0.481000000000     0.050480000000     0.142690000000     0.0504388  
H251     H      0.467120000000     0.889740000000     0.251460000000     0.0348614  
H252     H      0.597150000000     0.079000000000     0.144530000000     0.0276784  
H253     H      0.512790000000     0.051820000000     0.231500000000     0.0507872  
H254     H      0.455220000000     0.947370000000     0.131550000000     0.0537594  
H255     H      0.568220000000     0.107190000000     0.120020000000     0.0354195  
H256     H      0.396490000000     0.963330000000     0.229310000000     0.0273881  
H257     H      0.045970000000     0.449480000000     0.508900000000     0.0426493  
H258     H      0.868220000000     0.364160000000     0.439670000000     0.0260282  
H259     H      0.936660000000     0.497020000000     0.528470000000     0.0266154  
H260     H      0.878290000000     0.399500000000     0.516690000000     0.0429945  
H261     H      0.891570000000     0.439140000000     0.474160000000     0.0431922  
H262     H      0.013910000000     0.395210000000     0.468850000000     0.0421126  
H263     H      0.062300000000     0.500550000000     0.557430000000     0.0354437  
H264     H      0.875160000000     0.420510000000     0.418800000000     0.0347446  
H265     H      0.910430000000     0.383910000000     0.545520000000     0.053099   
H266     H      0.028320000000     0.455480000000     0.448830000000     0.0500958  
H267     H      0.899480000000     0.459840000000     0.561090000000     0.0357105  
H268     H      0.941140000000     0.340200000000     0.436030000000     0.0274886  
H269     H      0.007460000000     0.408310000000     0.540140000000     0.0500179  
H270     H      0.947840000000     0.481310000000     0.452140000000     0.0535243  
H271     H      0.997960000000     0.380740000000     0.412870000000     0.0356805  
H272     H      0.039170000000     0.524850000000     0.526790000000     0.0285705  
H273     H      0.659320000000     0.235920000000     0.334450000000     0.0433235  
H274     H      0.833860000000     0.259670000000     0.322070000000     0.0315308  
H275     H      0.656810000000     0.095550000000     0.296900000000     0.0289726  
H276     H      0.742750000000     0.146760000000     0.323230000000     0.0434637  
H277     H      0.779270000000     0.191220000000     0.284230000000     0.0427374  
H278     H      0.697190000000     0.280240000000     0.295640000000     0.0427163  
H279     H      0.577430000000     0.150310000000     0.343540000000     0.0359639  
H280     H      0.864640000000     0.278980000000     0.285350000000     0.0347854  
H281     H      0.711850000000     0.148890000000     0.357250000000     0.050976   
H282     H      0.738070000000     0.286310000000     0.264870000000     0.0487882  
H283     H      0.658580000000     0.063750000000     0.331700000000     0.0358251  
H284     H      0.772650000000     0.326000000000     0.330530000000     0.0312244  
H285     H      0.666630000000     0.198200000000     0.363500000000     0.0507841  
H286     H      0.781750000000     0.239070000000     0.258830000000     0.0487756  
H287     H      0.785930000000     0.364200000000     0.296220000000     0.0350056  
H288     H      0.600350000000     0.154940000000     0.305010000000     0.0286595  
H289     H      0.297020000000     0.692210000000     0.359550000000     0.0424238  
H290     H      0.096860000000     0.617500000000     0.399140000000     0.026315   
H291     H      0.275590000000     0.818150000000     0.331740000000     0.0287644  
H292     H      0.210580000000     0.778230000000     0.370190000000     0.0425094  
H293     H      0.145160000000     0.705220000000     0.383470000000     0.0422426  
H294     H      0.227270000000     0.622390000000     0.370570000000     0.0420796  
H295     H      0.377410000000     0.776890000000     0.353510000000     0.035951   
H296     H      0.061550000000     0.625750000000     0.368170000000     0.0354411  
H297     H      0.256480000000     0.787410000000     0.399860000000     0.0501269  
H298     H      0.204930000000     0.627720000000     0.332920000000     0.0504117  
H299     H      0.293200000000     0.861420000000     0.364300000000     0.0358742  
H300     H      0.145180000000     0.566190000000     0.389900000000     0.0258211  
H301     H      0.311480000000     0.732820000000     0.392980000000     0.0504715  
H302     H      0.140070000000     0.690020000000     0.343050000000     0.0507666  
H303     H      0.145460000000     0.541950000000     0.352250000000     0.0354027  
H304     H      0.328710000000     0.764630000000     0.325030000000     0.0282098  
H305     H      0.037040000000     0.631770000000     0.147260000000     0.0426409  
H306     H      0.967790000000     0.445160000000     0.202910000000     0.027997   
H307     H      0.073850000000     0.526590000000     0.103830000000     0.0267126  
H308     H      0.999540000000     0.466150000000     0.137020000000     0.0431908  
H309     H      0.052610000000     0.487600000000     0.174310000000     0.0429959  
H310     H      0.000430000000     0.602830000000     0.191840000000     0.0426904  
H311     H      0.047320000000     0.642520000000     0.090900000000     0.0352178  
H312     H      0.020470000000     0.449590000000     0.225760000000     0.0362995  
H313     H      0.958350000000     0.486570000000     0.119540000000     0.0521558  
H314     H      0.055560000000     0.607560000000     0.212460000000     0.0499766  
H315     H      0.017510000000     0.482090000000     0.081640000000     0.0354741  
H316     H      0.938660000000     0.521080000000     0.216100000000     0.0293755  
H317     H      0.977820000000     0.586550000000     0.126980000000     0.0500785  
H318     H      0.082280000000     0.535940000000     0.203300000000     0.0519683  
H319     H      0.977680000000     0.568230000000     0.245060000000     0.0355822  
H320     H      0.093440000000     0.627960000000     0.109110000000     0.0285043  
H321     H      0.061160000000     0.117310000000     0.507020000000     0.0429503  
H322     H      0.940890000000     0.007710000000     0.576020000000     0.0290034  
H323     H      0.106520000000     0.009140000000     0.480370000000     0.0284811  
H324     H      0.028160000000     0.953000000000     0.510370000000     0.0430195  
H325     H      0.964320000000     0.952600000000     0.545550000000     0.0430433  
H326     H      0.094740000000     0.116270000000     0.550570000000     0.0429492  
H327     H      0.084830000000     0.120830000000     0.451480000000     0.0334694  
H328     H      0.943190000000     0.958720000000     0.600320000000     0.0336967  
H329     H      0.986940000000     0.965670000000     0.485150000000     0.051277   
H330     H      0.099790000000     0.068260000000     0.573200000000     0.0530601  
H331     H      0.056090000000     0.960440000000     0.455820000000     0.033966   
H332     H      0.020690000000     0.106820000000     0.580340000000     0.0259591  
H333     H      0.008330000000     0.070440000000     0.484120000000     0.0533639  
H334     H      0.017520000000     0.964310000000     0.570950000000     0.0500337  
H335     H      0.073220000000     0.118690000000     0.605890000000     0.0337442  
H336     H      0.125250000000     0.107790000000     0.476690000000     0.0258232  
H337     H      0.711790000000     0.793860000000     0.343310000000     0.0421725  
H338     H      0.879550000000     0.831810000000     0.411200000000     0.0253663  
H339     H      0.727300000000     0.684160000000     0.303000000000     0.0249865  
H340     H      0.798010000000     0.712780000000     0.337610000000     0.0424235  
H341     H      0.851340000000     0.764150000000     0.373800000000     0.0425253  
H342     H      0.771230000000     0.852430000000     0.374560000000     0.0422314  
H343     H      0.625520000000     0.705460000000     0.340620000000     0.0352459  
H344     H      0.933640000000     0.844460000000     0.386840000000     0.0348372  
H345     H      0.755940000000     0.686610000000     0.370780000000     0.0525303  
H346     H      0.812280000000     0.872840000000     0.341020000000     0.0496208  
H347     H      0.716950000000     0.629120000000     0.326460000000     0.0346384  
H348     H      0.840530000000     0.890910000000     0.408950000000     0.0263623  
H349     H      0.693880000000     0.752030000000     0.376690000000     0.0501574  
H350     H      0.876100000000     0.810350000000     0.342170000000     0.0524196  
H351     H      0.858920000000     0.938850000000     0.378760000000     0.0351993  
H352     H      0.670240000000     0.724140000000     0.308990000000     0.0259498  
H353     H      0.290990000000     0.330850000000     0.384780000000     0.0422911  
H354     H      0.243520000000     0.153550000000     0.311760000000     0.0266925  
H355     H      0.419020000000     0.316620000000     0.410500000000     0.0261351  
H356     H      0.374430000000     0.247380000000     0.376410000000     0.0423388  
H357     H      0.313250000000     0.189570000000     0.345930000000     0.0423417  
H358     H      0.236090000000     0.280840000000     0.348670000000     0.0424236  
H359     H      0.373120000000     0.413200000000     0.395960000000     0.0345633  
H360     H      0.224890000000     0.104670000000     0.341380000000     0.035653   
H361     H      0.391620000000     0.289270000000     0.343090000000     0.0499244  
H362     H      0.211410000000     0.234130000000     0.380050000000     0.0518275  
H363     H      0.461890000000     0.335160000000     0.377980000000     0.0352324  
H364     H      0.205530000000     0.213730000000     0.310780000000     0.026091   
H365     H      0.332170000000     0.357100000000     0.351260000000     0.0523527  
H366     H      0.272580000000     0.169490000000     0.379620000000     0.0501637  
H367     H      0.152520000000     0.201620000000     0.335970000000     0.0352296  
H368     H      0.362750000000     0.357190000000     0.418470000000     0.0250802  
H369     H      0.996840000000     0.919350000000     0.211220000000     0.0426673  
H370     H      0.941060000000     0.032790000000     0.136400000000     0.0268017  
H371     H      0.039610000000     0.073750000000     0.241830000000     0.027783   
H372     H      0.953190000000     0.043470000000     0.216010000000     0.0427849  
H373     H      0.004110000000     0.075630000000     0.178160000000     0.0433163  
H374     H      0.961340000000     0.909110000000     0.165820000000     0.042547   
H375     H      0.024400000000     0.937320000000     0.265670000000     0.0355001  
H376     H      0.002740000000     0.084480000000     0.122020000000     0.0352539  
H377     H      0.923390000000     0.987220000000     0.239980000000     0.0513324  
H378     H      0.026180000000     0.958020000000     0.152850000000     0.050399   
H379     H      0.989470000000     0.064550000000     0.268560000000     0.0365872  
H380     H      0.917900000000     0.933960000000     0.128650000000     0.0278798  
H381     H      0.944830000000     0.911920000000     0.235950000000     0.049432   
H382     H      0.050800000000     0.063290000000     0.160050000000     0.0532104  
H383     H      0.965110000000     0.921880000000     0.109620000000     0.0358139  
H384     H      0.063540000000     0.991970000000     0.240560000000     0.0295906  
N1       N      0.528370000000     0.847620000000     0.713470000000    -0.174935   
N2       N      0.533550000000     0.615720000000     0.668190000000    -0.175168   
N3       N      0.534560000000     0.346610000000     0.712490000000    -0.174894   
N4       N      0.520000000000     0.108870000000     0.659390000000    -0.174974   
N5       N      0.989180000000     0.651370000000     0.628460000000    -0.175215   
N6       N      0.010060000000     0.886500000000     0.689570000000    -0.175228   
N7       N      0.003180000000     0.388540000000     0.670170000000    -0.174898   
N8       N      0.011070000000     0.162380000000     0.710100000000    -0.175026   
N9       N      0.521330000000     0.565680000000     0.933780000000    -0.174462   
N10      N      0.538760000000     0.514070000000     0.780920000000    -0.174324   
N11      N      0.529660000000     0.061850000000     0.928050000000    -0.174577   
N12      N      0.536460000000     0.021470000000     0.774740000000    -0.1742     
N13      N      0.647730000000     0.549620000000     0.030560000000    -0.174969   
N14      N      0.879790000000     0.555570000000     0.999670000000    -0.173604   
N15      N      0.391320000000     0.582330000000     0.021750000000    -0.175056   
N16      N      0.167660000000     0.588010000000     0.982910000000    -0.17505    
N17      N      0.006530000000     0.553420000000     0.741790000000    -0.174381   
N18      N      0.016150000000     0.581380000000     0.899500000000    -0.175291   
N19      N      0.672450000000     0.036630000000     0.011500000000    -0.173969   
N20      N      0.910720000000     0.033100000000     0.993790000000    -0.173638   
N21      N      0.177720000000     0.046600000000     0.051080000000    -0.173686   
N22      N      0.407480000000     0.051250000000     0.033590000000    -0.174195   
N23      N      0.094380000000     0.071510000000     0.939900000000    -0.175813   
N24      N      0.016130000000     0.010410000000     0.788200000000    -0.17598    
N25      N      0.575920000000     0.552080000000     0.450180000000    -0.175166   
N26      N      0.531300000000     0.450170000000     0.600560000000    -0.17516    
N27      N      0.514070000000     0.489920000000     0.270350000000    -0.175331   
N28      N      0.511960000000     0.564770000000     0.118200000000    -0.175426   
N29      N      0.505240000000     0.976540000000     0.439400000000    -0.174692   
N30      N      0.508340000000     0.930450000000     0.597870000000    -0.174833   
N31      N      0.548640000000     0.026560000000     0.109840000000    -0.175555   
N32      N      0.448390000000     0.952140000000     0.257830000000    -0.175601   
N33      N      0.937420000000     0.402270000000     0.412960000000    -0.175403   
N34      N      0.982460000000     0.484710000000     0.561440000000    -0.174803   
N35      N      0.830620000000     0.324630000000     0.302100000000    -0.173941   
N36      N      0.610380000000     0.100530000000     0.332540000000    -0.174293   
N37      N      0.099240000000     0.580030000000     0.358330000000    -0.174386   
N38      N      0.339910000000     0.824300000000     0.356680000000    -0.17435    
N39      N      0.992620000000     0.503570000000     0.237760000000    -0.173931   
N40      N      0.035650000000     0.563980000000     0.083110000000    -0.174548   
N41      N      0.006790000000     0.039010000000     0.605530000000    -0.175212   
N42      N      0.071550000000     0.040820000000     0.451120000000    -0.175205   
N43      N      0.900950000000     0.895900000000     0.380730000000    -0.174931   
N44      N      0.667330000000     0.662570000000     0.335930000000    -0.175014   
N45      N      0.183950000000     0.148830000000     0.340650000000    -0.174652   
N46      N      0.421390000000     0.378930000000     0.384620000000    -0.175012   
N47      N      0.984520000000     0.003940000000     0.112740000000    -0.174232   
N48      N      0.013580000000     0.005270000000     0.269590000000    -0.174002   
O1       O      0.043810000000     0.986090000000     0.313590000000    -0.39871    
O2       O      0.072850000000     0.003990000000     0.405030000000    -0.3994     
O3       O      0.987760000000     0.932290000000     0.368090000000    -0.401335   
O4       O      0.131190000000     0.059580000000     0.350590000000    -0.398008   
O5       O      0.096500000000     0.112420000000     0.351910000000    -0.400794   
O6       O      0.953630000000     0.985470000000     0.371550000000    -0.397565   
O7       O      0.043120000000     0.061150000000     0.407080000000    -0.399271   
O8       O      0.009150000000     0.038860000000     0.316370000000    -0.400134   
O9       O      0.961590000000     0.504730000000     0.285920000000    -0.398645   
O10      O      0.928410000000     0.448500000000     0.373070000000    -0.399916   
O11      O      0.012370000000     0.540730000000     0.344540000000    -0.400763   
O12      O      0.877670000000     0.412780000000     0.315320000000    -0.400476   
O13      O      0.919940000000     0.367520000000     0.309570000000    -0.39953    
O14      O      0.056080000000     0.497860000000     0.335390000000    -0.399617   
O15      O      0.975170000000     0.408110000000     0.366180000000    -0.401684   
O16      O      0.001060000000     0.457330000000     0.277880000000    -0.401143   
O17      O      0.481590000000     0.933190000000     0.300460000000    -0.400652   
O18      O      0.513600000000     0.948700000000     0.391550000000    -0.399104   
O19      O      0.429870000000     0.871480000000     0.353060000000    -0.400437   
O20      O      0.565020000000     0.009860000000     0.338180000000    -0.400867   
O21      O      0.522760000000     0.054790000000     0.345300000000    -0.399423   
O22      O      0.386190000000     0.915620000000     0.356510000000    -0.399546   
O23      O      0.466670000000     0.989190000000     0.397070000000    -0.401026   
O24      O      0.442340000000     0.981500000000     0.305500000000    -0.402072   
O25      O      0.535310000000     0.555460000000     0.406060000000    -0.399843   
O26      O      0.500200000000     0.519650000000     0.316110000000    -0.398648   
O27      O      0.456930000000     0.467130000000     0.373040000000    -0.401606   
O28      O      0.580360000000     0.610230000000     0.349160000000    -0.398151   
O29      O      0.632290000000     0.574740000000     0.348430000000    -0.401157   
O30      O      0.508000000000     0.430790000000     0.370410000000    -0.398058   
O31      O      0.555440000000     0.488020000000     0.314260000000    -0.401177   
O32      O      0.586990000000     0.519700000000     0.404600000000    -0.400667   
O33      O      0.995530000000     0.977630000000     0.065090000000    -0.399163   
O34      O      0.054260000000     0.011800000000     0.978760000000    -0.398676   
O35      O      0.091380000000     0.998300000000     0.036330000000    -0.399779   
O36      O      0.956890000000     0.991210000000     0.006860000000    -0.397434   
O37      O      0.991170000000     0.077470000000     0.017030000000    -0.401477   
O38      O      0.126640000000     0.085330000000     0.044300000000    -0.398795   
O39      O      0.084470000000     0.098020000000     0.987450000000    -0.400423   
O40      O      0.030380000000     0.064130000000     0.074670000000    -0.399244   
O41      O      0.038510000000     0.621020000000     0.946780000000    -0.399175   
O42      O      0.046040000000     0.611870000000     0.039260000000    -0.400504   
O43      O      0.114660000000     0.624610000000     0.988870000000    -0.399236   
O44      O      0.969590000000     0.607830000000     0.997160000000    -0.399147   
O45      O      0.933510000000     0.519870000000     0.994140000000    -0.40084    
O46      O      0.078020000000     0.536650000000     0.985260000000    -0.402481   
O47      O      0.011650000000     0.524130000000     0.035860000000    -0.400709   
O48      O      0.000680000000     0.532800000000     0.943590000000    -0.399994   
O49      O      0.565850000000     0.079600000000     0.067580000000    -0.400296   
O50      O      0.561180000000     0.097200000000     0.975610000000    -0.398139   
O51      O      0.496920000000     0.092200000000     0.027010000000    -0.399407   
O52      O      0.630070000000     0.084470000000     0.016950000000    -0.400272   
O53      O      0.582420000000     0.996990000000     0.009720000000    -0.399035   
O54      O      0.449380000000     0.003980000000     0.023550000000    -0.399331   
O55      O      0.509650000000     0.009530000000     0.970840000000    -0.399942   
O56      O      0.522120000000     0.991550000000     0.061840000000    -0.401687   
O57      O      0.487580000000     0.521540000000     0.072220000000    -0.400318   
O58      O      0.496710000000     0.521540000000     0.979670000000    -0.400012   
O59      O      0.557830000000     0.513130000000     0.028990000000    -0.398518   
O60      O      0.429360000000     0.530190000000     0.022820000000    -0.402365   
O61      O      0.480730000000     0.618110000000     0.025720000000    -0.399844   
O62      O      0.609230000000     0.601120000000     0.027160000000    -0.402977   
O63      O      0.546850000000     0.609800000000     0.979810000000    -0.397506   
O64      O      0.544590000000     0.608740000000     0.072910000000    -0.398762   
O65      O      0.967080000000     0.933500000000     0.695370000000    -0.401206   
O66      O      0.967570000000     0.072720000000     0.700680000000    -0.400735   
O67      O      0.965290000000     0.005160000000     0.651280000000    -0.398045   
O68      O      0.970020000000     0.001280000000     0.744240000000    -0.398497   
O69      O      0.056830000000     0.035040000000     0.741710000000    -0.400896   
O70      O      0.052250000000     0.058820000000     0.650620000000    -0.399789   
O71      O      0.054840000000     0.115880000000     0.704450000000    -0.399597   
O72      O      0.053820000000     0.977760000000     0.688540000000    -0.399542   
O73      O      0.949020000000     0.564270000000     0.643970000000    -0.400498   
O74      O      0.955640000000     0.430880000000     0.662810000000    -0.399573   
O75      O      0.957990000000     0.514190000000     0.698700000000    -0.402685   
O76      O      0.945870000000     0.480890000000     0.608300000000    -0.40341    
O77      O      0.033130000000     0.523590000000     0.604110000000    -0.39872    
O78      O      0.045060000000     0.562630000000     0.694510000000    -0.396974   
O79      O      0.042940000000     0.477600000000     0.659640000000    -0.40201    
O80      O      0.035990000000     0.609290000000     0.638150000000    -0.401856   
O81      O      0.478320000000     0.022120000000     0.675760000000    -0.399603   
O82      O      0.482250000000     0.889550000000     0.700900000000    -0.39976    
O83      O      0.487030000000     0.977530000000     0.732760000000    -0.403027   
O84      O      0.472900000000     0.933590000000     0.643960000000    -0.403059   
O85      O      0.560020000000     0.974650000000     0.639460000000    -0.396924   
O86      O      0.574110000000     0.024610000000     0.727970000000    -0.397087   
O87      O      0.569620000000     0.934600000000     0.697810000000    -0.399909   
O88      O      0.565240000000     0.065280000000     0.669720000000    -0.400049   
O89      O      0.490970000000     0.391600000000     0.701420000000    -0.40047    
O90      O      0.490590000000     0.527500000000     0.681270000000    -0.401099   
O91      O      0.489090000000     0.444450000000     0.645840000000    -0.399607   
O92      O      0.492990000000     0.475150000000     0.736810000000    -0.399707   
O93      O      0.580430000000     0.521980000000     0.735130000000    -0.399727   
O94      O      0.576580000000     0.485380000000     0.645190000000    -0.400502   
O95      O      0.578020000000     0.571250000000     0.678720000000    -0.399044   
O96      O      0.578510000000     0.435860000000     0.701400000000    -0.398861   


