data_structure

_audit_creation_method RASPA-1.0
_audit_creation_date 2023-5-25
_audit_author_name 'Poobodin Mano'

_cell_length_a    29.5839
_cell_length_b    29.0075
_cell_length_c    29.7092
_cell_angle_alpha 89.9998
_cell_angle_beta  89.9998
_cell_angle_gamma 89.9998
_cell_volume      25495.1

_symmetry_cell_setting          triclinic
_symmetry_space_group_name_Hall 'P 1'
_symmetry_space_group_name_H-M  'P 1'
_symmetry_Int_Tables_number     1

_symmetry_equiv_pos_as_xyz 'x,y,z'

loop_
_atom_site_label
_atom_site_type_symbol
_atom_site_fract_x
_atom_site_fract_y
_atom_site_fract_z
_atom_site_charge
C1       C      0.971420000000     0.110240000000     0.531020000000     0.407414   
C2       C      0.996820000000     0.930180000000     0.507680000000     0.401676   
C3       C      0.072870000000     0.031720000000     0.515500000000     0.400153   
C4       C      0.894420000000     0.008470000000     0.522920000000     0.40278    
C5       C      0.046430000000     0.517820000000     0.392990000000     0.40842    
C6       C      0.026700000000     0.528270000000     0.570770000000     0.404769   
C7       C      0.024660000000     0.432290000000     0.487490000000     0.406999   
C8       C      0.048490000000     0.613780000000     0.475410000000     0.405786   
C9       C      0.491060000000     0.021260000000     0.605520000000     0.403414   
C10      C      0.475040000000     0.017740000000     0.427000000000     0.400887   
C11      C      0.570740000000     0.000840000000     0.508370000000     0.405465   
C12      C      0.395410000000     0.038460000000     0.524380000000     0.402517   
C13      C      0.491090000000     0.994350000000     0.103530000000     0.406551   
C14      C      0.472780000000     0.036200000000     0.930030000000     0.405637   
C15      C      0.470160000000     0.103390000000     0.038210000000     0.404968   
C16      C      0.493530000000     0.926670000000     0.996170000000     0.404591   
C17      C      0.030870000000     0.508540000000     0.072290000000     0.402292   
C18      C      0.033830000000     0.528150000000     0.894150000000     0.410656   
C19      C      0.122150000000     0.522080000000     0.985430000000     0.40456    
C20      C      0.942480000000     0.514710000000     0.981630000000     0.404028   
C21      C      0.512330000000     0.424930000000     0.031460000000     0.401325   
C22      C      0.552510000000     0.603650000000     0.029020000000     0.401613   
C23      C      0.445000000000     0.535380000000     0.031820000000     0.401655   
C24      C      0.619880000000     0.493190000000     0.028350000000     0.401846   
C25      C      0.685470000000     0.456750000000     0.990150000000     0.0136801  
C26      C      0.869810000000     0.552090000000     0.999190000000     0.0126179  
C27      C      0.871950000000     0.474980000000     0.958630000000    -0.00464744 
C28      C      0.832340000000     0.534760000000     0.030210000000    -0.100687   
C29      C      0.727530000000     0.481850000000     0.972820000000    -0.103701   
C30      C      0.830310000000     0.459330000000     0.985720000000    -0.0895482  
C31      C      0.758180000000     0.497370000000     0.011100000000     0.0243507  
C32      C      0.803960000000     0.499250000000     0.005910000000     0.0269245  
C33      C      0.694340000000     0.493040000000     0.066220000000     0.0131691  
C34      C      0.734720000000     0.521520000000     0.049990000000    -0.103096   
C35      C      0.379100000000     0.575050000000     0.997820000000     0.0140445  
C36      C      0.194170000000     0.482700000000     0.000890000000     0.0129352  
C37      C      0.192970000000     0.564270000000     0.969180000000    -0.00457009 
C38      C      0.231770000000     0.496020000000     0.033700000000    -0.101504   
C39      C      0.336170000000     0.552230000000     0.979700000000    -0.103993   
C40      C      0.234560000000     0.576110000000     0.998050000000    -0.0900037  
C41      C      0.306290000000     0.534130000000     0.017430000000     0.0246923  
C42      C      0.260430000000     0.533710000000     0.013240000000     0.0276517  
C43      C      0.371410000000     0.532590000000     0.071080000000     0.013127   
C44      C      0.330160000000     0.506220000000     0.053530000000    -0.103281   
C45      C      0.583140000000     0.673160000000     0.990460000000     0.0133383  
C46      C      0.464570000000     0.847160000000     0.001070000000     0.0122693  
C47      C      0.539610000000     0.863300000000     0.963330000000    -0.00478126 
C48      C      0.485900000000     0.810140000000     0.030670000000    -0.100122   
C49      C      0.553880000000     0.713410000000     0.973860000000    -0.102868   
C50      C      0.560240000000     0.820920000000     0.987110000000    -0.0890371  
C51      C      0.535130000000     0.742390000000     0.012380000000     0.0226994  
C52      C      0.525170000000     0.787880000000     0.006250000000     0.0265089  
C53      C      0.549820000000     0.679100000000     0.067590000000     0.0131726  
C54      C      0.516150000000     0.715810000000     0.052210000000    -0.102377   
C55      C      0.520600000000     0.349650000000     0.069370000000     0.0140589  
C56      C      0.421780000000     0.172690000000     0.038690000000     0.0122697  
C57      C      0.498880000000     0.173030000000     0.076440000000    -0.00473998 
C58      C      0.431700000000     0.219380000000     0.016550000000    -0.100138   
C59      C      0.483170000000     0.319110000000     0.088060000000    -0.10596    
C60      C      0.507910000000     0.221440000000     0.057750000000    -0.0890859  
C61      C      0.461010000000     0.293160000000     0.049900000000     0.0279219  
C62      C      0.464850000000     0.246650000000     0.044780000000     0.0274646  
C63      C      0.478470000000     0.355930000000     0.995360000000     0.0115046  
C64      C      0.441100000000     0.323990000000     0.013760000000    -0.104737   
C65      C      0.501590000000     0.075330000000     0.861460000000     0.0161533  
C66      C      0.479400000000     0.982000000000     0.678230000000     0.012064   
C67      C      0.518620000000     0.059870000000     0.674800000000    -0.00455527 
C68      C      0.451170000000     0.997770000000     0.718420000000    -0.0996806  
C69      C      0.516800000000     0.050940000000     0.818420000000    -0.10647    
C70      C      0.494050000000     0.074210000000     0.718260000000    -0.0893767  
C71      C      0.476670000000     0.033460000000     0.791300000000     0.0296205  
C72      C      0.477090000000     0.033280000000     0.745350000000     0.0263955  
C73      C      0.427450000000     0.033500000000     0.860030000000     0.016522   
C74      C      0.441510000000     0.006640000000     0.817910000000    -0.107692   
C75      C      0.537780000000     0.994890000000     0.172620000000     0.018881   
C76      C      0.446370000000     0.980120000000     0.357750000000     0.0117874  
C77      C      0.490030000000     0.055540000000     0.354090000000    -0.00227165 
C78      C      0.472280000000     0.962130000000     0.316840000000    -0.0987909  
C79      C      0.526310000000     0.023360000000     0.214500000000    -0.110219   
C80      C      0.516960000000     0.037470000000     0.313460000000    -0.0919292  
C81      C      0.490230000000     0.999270000000     0.242240000000     0.0322053  
C82      C      0.490330000000     0.001250000000     0.288110000000     0.0270735  
C83      C      0.460990000000     0.958270000000     0.173110000000     0.0161273  
C84      C      0.448490000000     0.983820000000     0.216400000000    -0.105621   
C85      C      0.056040000000     0.497460000000     0.819720000000     0.0167542  
C86      C      0.980530000000     0.546520000000     0.637680000000     0.0126868  
C87      C      0.051680000000     0.497280000000     0.643550000000    -0.00364833 
C88      C      0.991220000000     0.568750000000     0.683460000000    -0.100272   
C89      C      0.024780000000     0.485170000000     0.780790000000    -0.108404   
C90      C      0.061560000000     0.518420000000     0.689680000000    -0.09003    
C91      C      0.010260000000     0.528610000000     0.756480000000     0.034717   
C92      C      0.019060000000     0.536220000000     0.712050000000     0.0269024  
C93      C      0.018610000000     0.575520000000     0.826330000000     0.0165433  
C94      C      0.987470000000     0.564060000000     0.786310000000    -0.109639   
C95      C      0.043600000000     0.459900000000     0.139580000000     0.0131779  
C96      C      0.020520000000     0.544960000000     0.318910000000     0.0113355  
C97      C      0.090060000000     0.493150000000     0.326120000000     0.00192449 
C98      C      0.004790000000     0.517260000000     0.278420000000    -0.0985515  
C99      C      0.075120000000     0.469120000000     0.179790000000    -0.106654   
C100     C      0.075010000000     0.466720000000     0.283390000000    -0.0928143  
C101     C      0.053700000000     0.504920000000     0.210090000000     0.0331895  
C102     C      0.045030000000     0.496830000000     0.254370000000     0.0260213  
C103     C      0.010290000000     0.539900000000     0.146870000000     0.0143091  
C104     C      0.041100000000     0.549570000000     0.186890000000    -0.105697   
C105     C      0.330720000000     0.091260000000     0.512690000000     0.012499   
C106     C      0.147070000000     0.013370000000     0.548690000000     0.0125108  
C107     C      0.141340000000     0.054530000000     0.472920000000    -0.00291768 
C108     C      0.186050000000     0.044670000000     0.561940000000    -0.100635   
C109     C      0.286790000000     0.081340000000     0.486600000000    -0.105763   
C110     C      0.183080000000     0.084090000000     0.485590000000    -0.0922424  
C111     C      0.256300000000     0.050480000000     0.514390000000     0.0329502  
C112     C      0.211560000000     0.059520000000     0.520430000000     0.0261089  
C113     C      0.321500000000     0.017440000000     0.556790000000     0.0144977  
C114     C      0.278050000000     0.006520000000     0.531490000000    -0.105155   
C115     C      0.645210000000     0.024180000000     0.479000000000     0.0187463  
C116     C      0.825400000000     0.985610000000     0.564320000000     0.0116601  
C117     C      0.821210000000     0.030810000000     0.490560000000    -0.00453118 
C118     C      0.782210000000     0.959030000000     0.551270000000    -0.09921    
C119     C      0.684850000000     0.037610000000     0.508710000000    -0.110172   
C120     C      0.778340000000     0.004340000000     0.478150000000    -0.0896544  
C121     C      0.708530000000     0.994590000000     0.525510000000     0.0351394  
C122     C      0.753710000000     0.987660000000     0.519600000000     0.0251198  
C123     C      0.636440000000     0.949130000000     0.520930000000     0.0159729  
C124     C      0.678290000000     0.960520000000     0.550000000000    -0.109682   
C125     C      0.995330000000     0.860710000000     0.458970000000     0.0142945  
C126     C      0.095200000000     0.683270000000     0.487090000000     0.0130492  
C127     C      0.024040000000     0.686200000000     0.439380000000    -0.00407235 
C128     C      0.082150000000     0.728590000000     0.510180000000    -0.100192   
C129     C      0.036690000000     0.834310000000     0.442020000000    -0.106622   
C130     C      0.012080000000     0.733350000000     0.459400000000    -0.0891239  
C131     C      0.055710000000     0.804600000000     0.479420000000     0.0285245  
C132     C      0.052680000000     0.757710000000     0.479640000000     0.027939   
C133     C      0.026200000000     0.856680000000     0.538320000000     0.0117877  
C134     C      0.068540000000     0.831470000000     0.521200000000    -0.105084   
C135     C      0.982990000000     0.180870000000     0.576250000000     0.0132344  
C136     C      0.977270000000     0.363440000000     0.473730000000     0.014709   
C137     C      0.055090000000     0.356280000000     0.509850000000     0.00223996 
C138     C      0.958410000000     0.328670000000     0.507310000000    -0.102302   
C139     C      0.013560000000     0.220430000000     0.560240000000    -0.104002   
C140     C      0.036410000000     0.319900000000     0.542910000000    -0.096547   
C141     C      0.989190000000     0.249880000000     0.525570000000     0.0281876  
C142     C      0.995170000000     0.296380000000     0.523510000000     0.0326056  
C143     C      0.938660000000     0.183800000000     0.504300000000     0.014033   
C144     C      0.967120000000     0.223880000000     0.486980000000    -0.102747   
Cu1      Cu     0.986390000000     0.014520000000     0.560460000000     0.843705   
Cu2      Cu     0.980940000000     0.025810000000     0.478210000000     0.861232   
Cu3      Cu     0.077620000000     0.517350000000     0.486970000000     0.866581   
Cu4      Cu     0.995510000000     0.528880000000     0.476730000000     0.847168   
Cu5      Cu     0.474430000000     0.977910000000     0.518310000000     0.844075   
Cu6      Cu     0.491650000000     0.061150000000     0.514230000000     0.862479   
Cu7      Cu     0.523000000000     0.021830000000     0.013990000000     0.850101   
Cu8      Cu     0.440810000000     0.008560000000     0.019540000000     0.849815   
Cu9      Cu     0.034470000000     0.476120000000     0.978960000000     0.851206   
Cu10     Cu     0.030220000000     0.560640000000     0.987490000000     0.850542   
Cu11     Cu     0.533330000000     0.514560000000     0.071340000000     0.853219   
Cu12     Cu     0.531500000000     0.514000000000     0.988570000000     0.837629   
H1       H      0.744430000000     0.459640000000     0.947680000000     0.0614902  
H2       H      0.854460000000     0.571630000000     0.970870000000     0.0424905  
H3       H      0.707090000000     0.460390000000     0.081230000000     0.0323076  
H4       H      0.757630000000     0.525780000000     0.079340000000     0.0468725  
H5       H      0.812190000000     0.565420000000     0.040220000000     0.0481629  
H6       H      0.809680000000     0.435490000000     0.965140000000     0.0564494  
H7       H      0.661560000000     0.451260000000     0.961800000000     0.0422315  
H8       H      0.890990000000     0.576670000000     0.018680000000     0.0390022  
H9       H      0.723090000000     0.556160000000     0.038910000000     0.0564404  
H10      H      0.842590000000     0.438110000000     0.014390000000     0.0528736  
H11      H      0.676630000000     0.512670000000     0.093090000000     0.0396966  
H12      H      0.716390000000     0.513200000000     0.954380000000     0.0680797  
H13      H      0.847270000000     0.519140000000     0.060980000000     0.0530474  
H14      H      0.894130000000     0.444330000000     0.954570000000     0.0559201  
H15      H      0.696110000000     0.422160000000     0.002370000000     0.0319422  
H16      H      0.901150000000     0.549010000000     0.889130000000     0.15202    
H17      H      0.318930000000     0.576770000000     0.956920000000     0.062632   
H18      H      0.209350000000     0.466040000000     0.970780000000     0.043473   
H19      H      0.359590000000     0.563950000000     0.089150000000     0.033501   
H20      H      0.307740000000     0.499680000000     0.082870000000     0.0494797  
H21      H      0.251670000000     0.464290000000     0.040520000000     0.0493412  
H22      H      0.255600000000     0.602180000000     0.980660000000     0.0563008  
H23      H      0.402500000000     0.582310000000     0.969410000000     0.0417517  
H24      H      0.172380000000     0.456600000000     0.017680000000     0.0389616  
H25      H      0.340950000000     0.472540000000     0.039260000000     0.0563461  
H26      H      0.222320000000     0.593610000000     0.029040000000     0.0542054  
H27      H      0.389590000000     0.510330000000     0.095590000000     0.0406039  
H28      H      0.346230000000     0.522350000000     0.958530000000     0.0683742  
H29      H      0.216910000000     0.508330000000     0.065900000000     0.0556202  
H30      H      0.170950000000     0.595320000000     0.968740000000     0.0554989  
H31      H      0.369450000000     0.608770000000     0.012820000000     0.0310036  
H32      H      0.162090000000     0.501510000000     0.890330000000     0.153925   
H33      H      0.573830000000     0.733490000000     0.949210000000     0.0595249  
H34      H      0.449650000000     0.830610000000     0.970780000000     0.0417376  
H35      H      0.580780000000     0.696520000000     0.080400000000     0.0309971  
H36      H      0.509870000000     0.738810000000     0.081480000000     0.0465691  
H37      H      0.458950000000     0.784690000000     0.038550000000     0.0483085  
H38      H      0.585000000000     0.804250000000     0.964420000000     0.0566975  
H39      H      0.589970000000     0.649230000000     0.962040000000     0.0419762  
H40      H      0.436380000000     0.863170000000     0.020230000000     0.03952    
H41      H      0.483730000000     0.699220000000     0.042390000000     0.056116   
H42      H      0.580390000000     0.833700000000     0.016130000000     0.0525893  
H43      H      0.534610000000     0.659410000000     0.095880000000     0.0395363  
H44      H      0.524640000000     0.698930000000     0.955090000000     0.0667529  
H45      H      0.498010000000     0.825710000000     0.062680000000     0.0531058  
H46      H      0.566450000000     0.890040000000     0.961460000000     0.056202   
H47      H      0.616190000000     0.687480000000     0.001560000000     0.0312039  
H48      H      0.461340000000     0.884780000000     0.897100000000     0.15198    
H49      H      0.496060000000     0.296490000000     0.115290000000     0.0655074  
H50      H      0.402060000000     0.178470000000     0.070020000000     0.044125   
H51      H      0.502800000000     0.334780000000     0.975650000000     0.0336014  
H52      H      0.426580000000     0.304560000000     0.985030000000     0.0482032  
H53      H      0.398910000000     0.237780000000     0.013220000000     0.049749   
H54      H      0.529950000000     0.240600000000     0.081370000000     0.0556627  
H55      H      0.535510000000     0.370030000000     0.097350000000     0.0425147  
H56      H      0.400220000000     0.152230000000     0.015400000000     0.0385903  
H57      H      0.413650000000     0.345220000000     0.028680000000     0.0563709  
H58      H      0.528230000000     0.217630000000     0.026480000000     0.0535752  
H59      H      0.462790000000     0.381310000000     0.972050000000     0.0398499  
H60      H      0.457310000000     0.341530000000     0.104130000000     0.0650759  
H61      H      0.446080000000     0.213940000000     0.982390000000     0.0533973  
H62      H      0.531640000000     0.154250000000     0.076080000000     0.0548587  
H63      H      0.547830000000     0.327150000000     0.055810000000     0.0312328  
H64      H      0.432090000000     0.121300000000     0.138760000000     0.157815   
H65      H      0.539620000000     0.074210000000     0.799650000000     0.0628582  
H66      H      0.509220000000     0.962500000000     0.690650000000     0.0455033  
H67      H      0.408750000000     0.064960000000     0.849390000000     0.0305096  
H68      H      0.410210000000     0.000810000000     0.798040000000     0.0491118  
H69      H      0.443550000000     0.966380000000     0.738450000000     0.0516513  
H70      H      0.515290000000     0.098670000000     0.737440000000     0.0561968  
H71      H      0.531680000000     0.083340000000     0.882450000000     0.0422711  
H72      H      0.458490000000     0.957620000000     0.658230000000     0.0406381  
H73      H      0.455750000000     0.972630000000     0.827760000000     0.0699007  
H74      H      0.463740000000     0.094490000000     0.708370000000     0.0530622  
H75      H      0.403970000000     0.011730000000     0.880070000000     0.0401292  
H76      H      0.537590000000     0.020570000000     0.828030000000     0.0758054  
H77      H      0.418790000000     0.012950000000     0.706560000000     0.0528044  
H78      H      0.520660000000     0.091060000000     0.653140000000     0.0568949  
H79      H      0.485840000000     0.108710000000     0.851790000000     0.0303192  
H80      H      0.587370000000     0.988120000000     0.639040000000     0.151742   
H81      H      0.558240000000     0.027560000000     0.233790000000     0.0530184  
H82      H      0.413460000000     0.994130000000     0.346040000000     0.0415046  
H83      H      0.474580000000     0.923860000000     0.182590000000     0.0281668  
H84      H      0.425140000000     0.961950000000     0.236130000000     0.0543024  
H85      H      0.450660000000     0.937420000000     0.298380000000     0.0486038  
H86      H      0.525820000000     0.067520000000     0.292000000000     0.0618221  
H87      H      0.562240000000     0.014680000000     0.151790000000     0.0425012  
H88      H      0.438520000000     0.950620000000     0.380320000000     0.0407662  
H89      H      0.429050000000     0.015220000000     0.207140000000     0.0753051  
H90      H      0.549080000000     0.021790000000     0.325440000000     0.0520984  
H91      H      0.429960000000     0.952390000000     0.152800000000     0.0395438  
H92      H      0.513970000000     0.058020000000     0.204330000000     0.0805903  
H93      H      0.501720000000     0.941880000000     0.329070000000     0.0544265  
H94      H      0.514060000000     0.076670000000     0.374200000000     0.0557167  
H95      H      0.554530000000     0.962370000000     0.183440000000     0.0300415  
H96      H      0.392630000000     0.077390000000     0.384730000000     0.152541   
H97      H      0.040710000000     0.458940000000     0.758830000000     0.0683541  
H98      H      0.955280000000     0.518600000000     0.642690000000     0.0443721  
H99      H      0.048210000000     0.595230000000     0.813570000000     0.0375546  
H100     H      0.980110000000     0.596850000000     0.768530000000     0.0508081  
H101     H      0.958320000000     0.577140000000     0.699490000000     0.0511981  
H102     H      0.081580000000     0.494100000000     0.710390000000     0.056851   
H103     H      0.064670000000     0.465560000000     0.838570000000     0.0449111  
H104     H      0.964610000000     0.573010000000     0.615720000000     0.0375695  
H105     H      0.955010000000     0.549770000000     0.798960000000     0.0711937  
H106     H      0.084200000000     0.548550000000     0.684510000000     0.0557673  
H107     H      0.999790000000     0.598180000000     0.850010000000     0.0413606  
H108     H      0.994040000000     0.468400000000     0.794770000000     0.0758791  
H109     H      0.010310000000     0.601320000000     0.678290000000     0.0532329  
H110     H      0.084870000000     0.492410000000     0.626640000000     0.0567554  
H111     H      0.088070000000     0.511420000000     0.805600000000     0.040237   
H112     H      0.978990000000     0.436110000000     0.594770000000     0.15533    
H113     H      0.080800000000     0.435730000000     0.197130000000     0.0515948  
H114     H      0.038470000000     0.576160000000     0.306660000000     0.0613174  
H115     H      0.977120000000     0.527780000000     0.159930000000     0.0289899  
H116     H      0.025500000000     0.575460000000     0.209520000000     0.0584826  
H117     H      0.982730000000     0.538610000000     0.256630000000     0.0489562  
H118     H      0.105630000000     0.454530000000     0.265350000000     0.0601339  
H119     H      0.061290000000     0.436540000000     0.115680000000     0.0393605  
H120     H      0.990370000000     0.557360000000     0.337670000000     0.0475808  
H121     H      0.072690000000     0.565740000000     0.174160000000     0.0693137  
H122     H      0.055460000000     0.435700000000     0.293570000000     0.0537876  
H123     H      0.004120000000     0.572590000000     0.128330000000     0.0400431  
H124     H      0.108240000000     0.482130000000     0.167510000000     0.062021   
H125     H      0.983210000000     0.488450000000     0.290570000000     0.0557027  
H126     H      0.104330000000     0.467190000000     0.349770000000     0.0573331  
H127     H      0.012900000000     0.441730000000     0.151950000000     0.0330159  
H128     H      0.171660000000     0.584720000000     0.350780000000     0.159797   
H129     H      0.270690000000     0.115070000000     0.479080000000     0.055954   
H130     H      0.161080000000     0.980410000000     0.535660000000     0.0373147  
H131     H      0.312410000000     0.035390000000     0.588620000000     0.0289753  
H132     H      0.255700000000     0.985080000000     0.552870000000     0.0530358  
H133     H      0.207490000000     0.027920000000     0.587810000000     0.0469943  
H134     H      0.202170000000     0.092260000000     0.454410000000     0.0614861  
H135     H      0.354420000000     0.110060000000     0.490150000000     0.0473305  
H136     H      0.127500000000     0.004780000000     0.579490000000     0.038788   
H137     H      0.286660000000     0.984820000000     0.501860000000     0.0712141  
H138     H      0.171400000000     0.117350000000     0.500100000000     0.056627   
H139     H      0.338620000000     0.984690000000     0.566140000000     0.0384046  
H140     H      0.294850000000     0.063940000000     0.454240000000     0.0666545  
H141     H      0.171940000000     0.075990000000     0.578310000000     0.056718   
H142     H      0.117680000000     0.077580000000     0.454460000000     0.0562388  
H143     H      0.322660000000     0.114070000000     0.541700000000     0.0362213  
H144     H      0.112490000000     0.952970000000     0.454300000000     0.150504   
H145     H      0.706970000000     0.062180000000     0.490660000000     0.070687   
H146     H      0.816250000000     0.013740000000     0.588020000000     0.0471499  
H147     H      0.647450000000     0.927410000000     0.492090000000     0.0315153  
H148     H      0.695860000000     0.927530000000     0.557290000000     0.0507899  
H149     H      0.763970000000     0.950730000000     0.582920000000     0.0519333  
H150     H      0.757320000000     0.024550000000     0.454410000000     0.0541478  
H151     H      0.627140000000     0.055800000000     0.467860000000     0.0428869  
H152     H      0.848240000000     0.961690000000     0.582750000000     0.0388967  
H153     H      0.667280000000     0.975900000000     0.582450000000     0.0708755  
H154     H      0.788590000000     0.973270000000     0.458740000000     0.0532571  
H155     H      0.612210000000     0.928720000000     0.541470000000     0.0388943  
H156     H      0.671700000000     0.056730000000     0.538390000000     0.080519   
H157     H      0.791500000000     0.926140000000     0.534460000000     0.05282    
H158     H      0.840480000000     0.035570000000     0.458770000000     0.0556572  
H159     H      0.658620000000     0.006960000000     0.448320000000     0.0295376  
H160     H      0.862640000000     0.102880000000     0.556670000000     0.156357   
H161     H      0.028760000000     0.814750000000     0.410940000000     0.0654034  
H162     H      0.118980000000     0.690790000000     0.459070000000     0.0439897  
H163     H      0.001190000000     0.830610000000     0.549920000000     0.0317003  
H164     H      0.081830000000     0.809740000000     0.548910000000     0.0475944  
H165     H      0.114150000000     0.746730000000     0.518590000000     0.0505021  
H166     H      0.993610000000     0.753880000000     0.433920000000     0.0552683  
H167     H      0.983670000000     0.884830000000     0.432320000000     0.0440137  
H168     H      0.113420000000     0.661350000000     0.511900000000     0.0396906  
H169     H      0.095060000000     0.857140000000     0.512530000000     0.0570238  
H170     H      0.987540000000     0.727700000000     0.487200000000     0.0523992  
H171     H      0.035930000000     0.877970000000     0.567880000000     0.0388799  
H172     H      0.062960000000     0.859810000000     0.432160000000     0.0687751  
H173     H      0.063590000000     0.721190000000     0.541900000000     0.0528051  
H174     H      0.991670000000     0.667520000000     0.434040000000     0.0541164  
H175     H      0.967600000000     0.835570000000     0.464990000000     0.0304034  
H176     H      0.101910000000     0.641410000000     0.384750000000     0.163622   
H177     H      0.022920000000     0.240920000000     0.590450000000     0.0535083  
H178     H      0.985660000000     0.344980000000     0.442040000000     0.038714   
H179     H      0.908400000000     0.198350000000     0.521380000000     0.0455453  
H180     H      0.945940000000     0.245600000000     0.464780000000     0.0556252  
H181     H      0.928710000000     0.311020000000     0.492560000000     0.05161    
H182     H      0.064000000000     0.295200000000     0.550810000000     0.0621695  
H183     H      0.002860000000     0.157810000000     0.598670000000     0.0405288  
H184     H      0.950350000000     0.388760000000     0.465380000000     0.040096   
H185     H      0.994480000000     0.209740000000     0.465370000000     0.0724921  
H186     H      0.026660000000     0.336840000000     0.574980000000     0.0746477  
H187     H      0.926520000000     0.162860000000     0.475360000000     0.0536387  
H188     H      0.044910000000     0.206120000000     0.545050000000     0.0628268  
H189     H      0.945390000000     0.347870000000     0.536990000000     0.0630783  
H190     H      0.079820000000     0.377270000000     0.529240000000     0.0641848  
H191     H      0.954620000000     0.195660000000     0.596150000000     0.0375556  
H192     H      0.070200000000     0.373720000000     0.408250000000     0.150765   
N1       N      0.896260000000     0.513120000000     0.981140000000    -0.169537   
N2       N      0.664780000000     0.482110000000     0.027870000000    -0.173664   
N3       N      0.168300000000     0.523730000000     0.986800000000    -0.169512   
N4       N      0.400170000000     0.546470000000     0.033040000000    -0.174063   
N5       N      0.499290000000     0.880750000000     0.987310000000    -0.169285   
N6       N      0.561750000000     0.649830000000     0.028990000000    -0.1738     
N7       N      0.464210000000     0.148560000000     0.049720000000    -0.169765   
N8       N      0.503020000000     0.378800000000     0.032510000000    -0.173565   
N9       N      0.494910000000     0.021860000000     0.651440000000    -0.169264   
N10      N      0.467830000000     0.047330000000     0.885600000000    -0.173577   
N11      N      0.471590000000     0.017020000000     0.381060000000    -0.169402   
N12      N      0.496070000000     0.983560000000     0.148030000000    -0.173523   
N13      N      0.021360000000     0.526910000000     0.616470000000    -0.169344   
N14      N      0.034970000000     0.533020000000     0.848400000000    -0.170295   
N15      N      0.051590000000     0.517570000000     0.347310000000    -0.163629   
N16      N      0.029760000000     0.503550000000     0.118000000000    -0.174144   
N17      N      0.118970000000     0.034970000000     0.513290000000    -0.169233   
N18      N      0.350600000000     0.048060000000     0.529790000000    -0.173533   
N19      N      0.848270000000     0.005820000000     0.524690000000    -0.168906   
N20      N      0.615700000000     0.991710000000     0.503290000000    -0.173508   
N21      N      0.054820000000     0.659980000000     0.469130000000    -0.169519   
N22      N      0.005820000000     0.884370000000     0.501740000000    -0.173762   
N23      N      0.018570000000     0.385670000000     0.491350000000    -0.166825   
N24      N      0.964550000000     0.156330000000     0.537050000000    -0.171079   
O1       O      0.978270000000     0.084120000000     0.565270000000    -0.396477   
O2       O      0.995660000000     0.946790000000     0.547640000000    -0.399757   
O3       O      0.053850000000     0.023280000000     0.553400000000    -0.399198   
O4       O      0.917880000000     0.005350000000     0.559220000000    -0.395114   
O5       O      0.913720000000     0.016200000000     0.485040000000    -0.39632    
O6       O      0.049120000000     0.035740000000     0.479520000000    -0.386781   
O7       O      0.990550000000     0.956370000000     0.473360000000    -0.392769   
O8       O      0.970750000000     0.093510000000     0.491110000000    -0.393308   
O9       O      0.081030000000     0.512510000000     0.418590000000    -0.379424   
O10      O      0.066000000000     0.521490000000     0.553870000000    -0.396015   
O11      O      0.064590000000     0.449090000000     0.490900000000    -0.387141   
O12      O      0.082570000000     0.587450000000     0.483120000000    -0.39302    
O13      O      0.008590000000     0.596980000000     0.472040000000    -0.397474   
O14      O      0.990550000000     0.458860000000     0.480830000000    -0.396958   
O15      O      0.992110000000     0.533830000000     0.545170000000    -0.396943   
O16      O      0.007080000000     0.524520000000     0.409820000000    -0.39748    
O17      O      0.481200000000     0.983360000000     0.585650000000    -0.400361   
O18      O      0.468250000000     0.980790000000     0.449900000000    -0.39577    
O19      O      0.542450000000     0.967570000000     0.512910000000    -0.395457   
O20      O      0.408750000000     0.996400000000     0.525160000000    -0.397436   
O21      O      0.423790000000     0.071540000000     0.519320000000    -0.393231   
O22      O      0.557230000000     0.042820000000     0.507890000000    -0.395086   
O23      O      0.485320000000     0.055560000000     0.446810000000    -0.391782   
O24      O      0.497410000000     0.058320000000     0.582650000000    -0.391577   
O25      O      0.526140000000     0.003830000000     0.079840000000    -0.397349   
O26      O      0.511650000000     0.039830000000     0.948850000000    -0.394728   
O27      O      0.510300000000     0.087460000000     0.033470000000    -0.395954   
O28      O      0.527550000000     0.954210000000     0.995420000000    -0.391991   
O29      O      0.454010000000     0.941690000000     0.006030000000    -0.400903   
O30      O      0.435600000000     0.077240000000     0.032580000000    -0.3975     
O31      O      0.438390000000     0.022320000000     0.952620000000    -0.398032   
O32      O      0.451520000000     0.994900000000     0.085810000000    -0.395789   
O33      O      0.031810000000     0.472620000000     0.047110000000    -0.398401   
O34      O      0.038110000000     0.487950000000     0.911680000000    -0.39418    
O35      O      0.102310000000     0.482830000000     0.983720000000    -0.400117   
O36      O      0.965620000000     0.477780000000     0.975330000000    -0.392207   
O37      O      0.962350000000     0.553370000000     0.988360000000    -0.401022   
O38      O      0.099090000000     0.559600000000     0.985740000000    -0.39275    
O39      O      0.028780000000     0.563810000000     0.919200000000    -0.394269   
O40      O      0.030650000000     0.549080000000     0.054950000000    -0.397516   
O41      O      0.522720000000     0.445750000000     0.068090000000    -0.398769   
O42      O      0.543860000000     0.583340000000     0.066390000000    -0.399949   
O43      O      0.465640000000     0.525400000000     0.068530000000    -0.398135   
O44      O      0.600740000000     0.503490000000     0.065780000000    -0.398699   
O45      O      0.597150000000     0.493170000000     0.991530000000    -0.393856   
O46      O      0.466140000000     0.535060000000     0.994090000000    -0.394167   
O47      O      0.551880000000     0.581070000000     0.991840000000    -0.39273    
O48      O      0.511210000000     0.446970000000     0.993960000000    -0.3931     
O49      O      0.812770000000     0.528250000000     0.903920000000    -0.184489   
O50      O      0.841250000000     0.445670000000     0.873750000000    -0.170581   
O51      O      0.900220000000     0.517240000000     0.876950000000    -0.269047   
O52      O      0.250820000000     0.516400000000     0.908630000000    -0.18455    
O53      O      0.226050000000     0.603460000000     0.889110000000    -0.172907   
O54      O      0.164300000000     0.534630000000     0.882510000000    -0.268106   
O55      O      0.499140000000     0.799470000000     0.902850000000    -0.183627   
O56      O      0.572210000000     0.847380000000     0.875830000000    -0.169391   
O57      O      0.491800000000     0.891400000000     0.884880000000    -0.26853    
O58      O      0.441860000000     0.214540000000     0.142180000000    -0.177636   
O59      O      0.526340000000     0.189650000000     0.165590000000    -0.169576   
O60      O      0.463140000000     0.123540000000     0.151020000000    -0.267156   
O61      O      0.578340000000     0.006060000000     0.728470000000    -0.180093   
O62      O      0.605210000000     0.089980000000     0.700470000000    -0.168894   
O63      O      0.599250000000     0.020030000000     0.640140000000    -0.267072   
O64      O      0.414870000000     0.071130000000     0.295840000000    -0.176749   
O65      O      0.467880000000     0.142730000000     0.319020000000    -0.158513   
O66      O      0.411710000000     0.105220000000     0.381230000000    -0.259056   
O67      O      0.984470000000     0.440830000000     0.684620000000    -0.183344   
O68      O      0.066600000000     0.404630000000     0.667680000000    -0.176089   
O69      O      0.009500000000     0.422550000000     0.598350000000    -0.274581   
O70      O      0.119930000000     0.569130000000     0.273380000000    -0.178031   
O71      O      0.180040000000     0.503470000000     0.297230000000    -0.177753   
O72      O      0.147980000000     0.562710000000     0.360430000000    -0.262833   
O73      O      0.200190000000     0.979320000000     0.453270000000    -0.185861   
O74      O      0.169530000000     0.031970000000     0.385190000000    -0.166218   
O75      O      0.112150000000     0.973270000000     0.427490000000    -0.259381   
O76      O      0.773190000000     0.086180000000     0.553840000000    -0.180454   
O77      O      0.784480000000     0.117700000000     0.469250000000    -0.175583   
O78      O      0.856210000000     0.114450000000     0.525970000000    -0.27171    
O79      O      0.087640000000     0.733670000000     0.384400000000    -0.179593   
O80      O      0.008770000000     0.706120000000     0.347990000000    -0.173696   
O81      O      0.072610000000     0.642420000000     0.368670000000    -0.264032   
O82      O      0.057120000000     0.287310000000     0.441540000000    -0.183551   
O83      O      0.134110000000     0.308680000000     0.485120000000    -0.166794   
O84      O      0.098610000000     0.369480000000     0.425400000000    -0.257778   
S1       S      0.856060000000     0.492020000000     0.902740000000     0.278091   
S2       S      0.209020000000     0.554280000000     0.911740000000     0.277935   
S3       S      0.525280000000     0.849890000000     0.906100000000     0.277965   
S4       S      0.482030000000     0.175530000000     0.134450000000     0.27837    
S5       S      0.575960000000     0.043490000000     0.686410000000     0.278594   
S6       S      0.445410000000     0.093810000000     0.337020000000     0.281725   
S7       S      0.027540000000     0.440730000000     0.648970000000     0.276438   
S8       S      0.134980000000     0.532850000000     0.313740000000     0.285119   
S9       S      0.156290000000     0.009100000000     0.434530000000     0.280638   
S10      S      0.808270000000     0.087800000000     0.510400000000     0.277442   
S11      S      0.048840000000     0.692470000000     0.384550000000     0.276682   
S12      S      0.086290000000     0.329830000000     0.464830000000     0.279776   


