data_structure

_audit_creation_method RASPA-1.0
_audit_creation_date 2023-5-25
_audit_author_name 'Poobodin Mano'

_cell_length_a    28.5178
_cell_length_b    27.3513
_cell_length_c    27.9375
_cell_angle_alpha 90
_cell_angle_beta  90.0003
_cell_angle_gamma 90.005
_cell_volume      21791.2

_symmetry_cell_setting          triclinic
_symmetry_space_group_name_Hall 'P 1'
_symmetry_space_group_name_H-M  'P 1'
_symmetry_Int_Tables_number     1

_symmetry_equiv_pos_as_xyz 'x,y,z'

loop_
_atom_site_label
_atom_site_type_symbol
_atom_site_fract_x
_atom_site_fract_y
_atom_site_fract_z
_atom_site_charge
Br1      Br     0.397230000000     0.557210000000     0.791500000000    -0.251288   
Br2      Br     0.384490000000     0.447360000000     0.183030000000    -0.232366   
Br3      Br     0.622720000000     0.647100000000     0.534700000000    -0.257982   
Br4      Br     0.441230000000     0.149510000000     0.511150000000    -0.24661    
Br5      Br     0.504010000000     0.655490000000     0.917020000000    -0.261169   
Br6      Br     0.379400000000     0.369920000000     0.054140000000    -0.23837    
Br7      Br     0.637070000000     0.065460000000     0.725650000000    -0.249338   
Br8      Br     0.415130000000     0.066090000000     0.371750000000    -0.240126   
Br9      Br     0.705940000000     0.443460000000     0.540050000000    -0.253764   
Br10     Br     0.187740000000     0.442830000000     0.656840000000    -0.226969   
Br11     Br     0.631150000000     0.447900000000     0.069820000000    -0.261209   
Br12     Br     0.144670000000     0.456670000000     0.172760000000    -0.253896   
Br13     Br     0.087570000000     0.456090000000     0.889770000000    -0.244435   
Br14     Br     0.875690000000     0.456820000000     0.256810000000    -0.262197   
Br15     Br     0.949650000000     0.865060000000     0.567360000000    -0.25514    
Br16     Br     0.057080000000     0.367860000000     0.629710000000    -0.238073   
Br17     Br     0.845930000000     0.060380000000     0.584060000000    -0.244787   
Br18     Br     0.198100000000     0.940440000000     0.623200000000    -0.257886   
Br19     Br     0.975970000000     0.864950000000     0.144960000000    -0.263526   
Br20     Br     0.032990000000     0.157070000000     0.982920000000    -0.247706   
Br21     Br     0.644020000000     0.946390000000     0.051680000000    -0.261683   
Br22     Br     0.262170000000     0.949200000000     0.979180000000    -0.256099   
Br23     Br     0.946150000000     0.072660000000     0.865960000000    -0.246436   
Br24     Br     0.097310000000     0.959600000000     0.323350000000    -0.252575   
C1       C      0.929300000000     0.010640000000     0.132960000000     0.479703   
C2       C      0.990810000000     0.007390000000     0.962030000000     0.482433   
C3       C      0.879170000000     0.010160000000     0.013420000000     0.478992   
C4       C      0.044710000000     0.006970000000     0.080040000000     0.475177   
C5       C      0.031510000000     0.003180000000     0.624290000000     0.481157   
C6       C      0.044730000000     0.009140000000     0.442820000000     0.479986   
C7       C      0.951510000000     0.010460000000     0.524420000000     0.483972   
C8       C      0.128810000000     0.006020000000     0.541320000000     0.489353   
C9       C      0.943660000000     0.508340000000     0.143830000000     0.482938   
C10      C      0.993640000000     0.508640000000     0.968940000000     0.483729   
C11      C      0.881440000000     0.508560000000     0.031050000000     0.474196   
C12      C      0.052070000000     0.508370000000     0.083780000000     0.484664   
C13      C      0.993270000000     0.506980000000     0.623850000000     0.479278   
C14      C      0.053700000000     0.512090000000     0.452700000000     0.477352   
C15      C      0.942640000000     0.504890000000     0.504720000000     0.474319   
C16      C      0.109900000000     0.505220000000     0.568170000000     0.483049   
C17      C      0.473280000000     0.005630000000     0.103430000000     0.479515   
C18      C      0.445290000000     0.012620000000     0.924000000000     0.4822     
C19      C      0.371120000000     0.003070000000     0.029210000000     0.483843   
C20      C      0.546730000000     0.010930000000     0.000090000000     0.485956   
C21      C      0.564110000000     0.010700000000     0.617580000000     0.48302    
C22      C      0.506690000000     0.005410000000     0.445690000000     0.481779   
C23      C      0.453450000000     0.005350000000     0.558890000000     0.47507    
C24      C      0.621790000000     0.009010000000     0.499600000000     0.483765   
C25      C      0.455460000000     0.504860000000     0.089430000000     0.49186    
C26      C      0.456100000000     0.507500000000     0.907960000000     0.483174   
C27      C      0.369360000000     0.510200000000     0.995070000000     0.483404   
C28      C      0.547490000000     0.510570000000     0.997850000000     0.484735   
C29      C      0.558220000000     0.508140000000     0.595450000000     0.484611   
C30      C      0.504030000000     0.507760000000     0.422710000000     0.476415   
C31      C      0.442310000000     0.508640000000     0.536280000000     0.477983   
C32      C      0.613420000000     0.504820000000     0.484350000000     0.482992   
C33      C      0.582620000000     0.553920000000     0.667840000000     0.0176606  
C34      C      0.455780000000     0.461690000000     0.831520000000     0.0240084  
C35      C      0.453440000000     0.553030000000     0.831160000000     0.136926   
C36      C      0.500310000000     0.460470000000     0.801240000000    -0.106623   
C37      C      0.545250000000     0.556980000000     0.706920000000    -0.0994081  
C38      C      0.497650000000     0.556030000000     0.800160000000    -0.13489    
C39      C      0.535460000000     0.508480000000     0.732750000000     0.015256   
C40      C      0.509370000000     0.508230000000     0.774180000000     0.0408528  
C41      C      0.584030000000     0.463940000000     0.668260000000     0.0192306  
C42      C      0.547030000000     0.460030000000     0.707600000000    -0.0994796  
C43      C      0.486340000000     0.459590000000     0.350040000000     0.0149974  
C44      C      0.452620000000     0.551090000000     0.165540000000     0.0241641  
C45      C      0.449610000000     0.457810000000     0.164930000000     0.137956   
C46      C      0.485730000000     0.548910000000     0.208480000000    -0.110989   
C47      C      0.446320000000     0.461160000000     0.313560000000    -0.104369   
C48      C      0.481280000000     0.457440000000     0.209360000000    -0.136581   
C49      C      0.453320000000     0.505650000000     0.282250000000     0.0285461  
C50      C      0.473930000000     0.504020000000     0.237860000000     0.0425557  
C51      C      0.488670000000     0.553250000000     0.347830000000     0.0152423  
C52      C      0.448540000000     0.551920000000     0.311470000000    -0.104813   
C53      C      0.552690000000     0.866360000000     0.486550000000    -0.00303818 
C54      C      0.511180000000     0.649140000000     0.554880000000     0.00753816 
C55      C      0.569260000000     0.652400000000     0.490980000000     0.122888   
C56      C      0.498340000000     0.703230000000     0.549500000000    -0.0972103  
C57      C      0.567000000000     0.812720000000     0.490570000000    -0.0884217  
C58      C      0.558750000000     0.705990000000     0.479330000000    -0.127213   
C59      C      0.534280000000     0.782990000000     0.522590000000     0.0109443  
C60      C      0.533200000000     0.732750000000     0.519630000000     0.0379437  
C61      C      0.502540000000     0.864300000000     0.555410000000    -0.000411   
C62      C      0.510250000000     0.809550000000     0.564060000000    -0.0898087  
C63      C      0.516820000000     0.366410000000     0.557820000000    -0.00194458 
C64      C      0.550780000000     0.149680000000     0.482560000000     0.00987645 
C65      C      0.497700000000     0.152580000000     0.550930000000     0.124163   
C66      C      0.564770000000     0.203470000000     0.487930000000    -0.0980041  
C67      C      0.502590000000     0.312630000000     0.554550000000    -0.0882898  
C68      C      0.510040000000     0.205630000000     0.562960000000    -0.128336   
C69      C      0.532590000000     0.283150000000     0.519580000000     0.0124179  
C70      C      0.532950000000     0.232860000000     0.521320000000     0.0406668  
C71      C      0.563170000000     0.364510000000     0.486250000000    -0.00189017 
C72      C      0.554400000000     0.310110000000     0.477110000000    -0.0884656  
C73      C      0.422760000000     0.865680000000     0.986180000000    -0.00147835 
C74      C      0.494120000000     0.650320000000     0.031930000000     0.0110695  
C75      C      0.448450000000     0.654350000000     0.958190000000     0.125      
C76      C      0.482310000000     0.703100000000     0.045820000000    -0.0982288  
C77      C      0.433140000000     0.813340000000     0.970400000000    -0.0882779  
C78      C      0.430760000000     0.706130000000     0.968320000000    -0.127764   
C79      C      0.458680000000     0.783420000000     0.008510000000     0.0112145  
C80      C      0.460070000000     0.733220000000     0.005630000000     0.0387981  
C81      C      0.477140000000     0.864340000000     0.051660000000    -0.000465557
C82      C      0.490080000000     0.810520000000     0.044090000000    -0.0891068  
C83      C      0.426080000000     0.149830000000     0.982100000000    -0.00197794 
C84      C      0.491050000000     0.365920000000     0.032530000000     0.00408346 
C85      C      0.414400000000     0.363820000000     0.994110000000     0.119302   
C86      C      0.500980000000     0.312040000000     0.021770000000    -0.0956905  
C87      C      0.414840000000     0.203360000000     0.992700000000    -0.0889985  
C88      C      0.419400000000     0.310150000000     0.979420000000    -0.126255   
C89      C      0.457520000000     0.232650000000     0.009210000000     0.0116429  
C90      C      0.457640000000     0.282920000000     0.006840000000     0.0378735  
C91      C      0.499600000000     0.151270000000     0.023820000000    -0.00143226 
C92      C      0.495570000000     0.205410000000     0.037040000000    -0.0896558  
C93      C      0.438920000000     0.060010000000     0.848460000000     0.0179991  
C94      C      0.577810000000     0.967550000000     0.694100000000     0.0238179  
C95      C      0.577580000000     0.058590000000     0.691700000000     0.136237   
C96      C      0.534970000000     0.965190000000     0.726790000000    -0.105211   
C97      C      0.482770000000     0.062130000000     0.816860000000    -0.0993378  
C98      C      0.536080000000     0.061590000000     0.726650000000    -0.13381    
C99      C      0.494170000000     0.013930000000     0.791150000000     0.0137547  
C100     C      0.523470000000     0.013540000000     0.751910000000     0.0378794  
C101     C      0.436080000000     0.969860000000     0.846310000000     0.0188862  
C102     C      0.480290000000     0.965870000000     0.815670000000    -0.0992036  
C103     C      0.481500000000     0.048630000000     0.181120000000     0.0162059  
C104     C      0.472230000000     0.957470000000     0.379250000000     0.0240618  
C105     C      0.481460000000     0.049250000000     0.372590000000     0.138872   
C106     C      0.488630000000     0.950960000000     0.327380000000    -0.109839   
C107     C      0.449710000000     0.041360000000     0.224500000000    -0.102888   
C108     C      0.500140000000     0.043270000000     0.321630000000    -0.13679    
C109     C      0.465280000000     0.996210000000     0.251790000000     0.0201352  
C110     C      0.481130000000     0.997180000000     0.298150000000     0.0442652  
C111     C      0.493200000000     0.957320000000     0.175810000000     0.0157667  
C112     C      0.463910000000     0.950060000000     0.221400000000    -0.102569   
C113     C      0.880920000000     0.459200000000     0.461560000000     0.0161744  
C114     C      0.687430000000     0.548680000000     0.467880000000     0.0203206  
C115     C      0.684890000000     0.455180000000     0.474740000000     0.137368   
C116     C      0.727570000000     0.543270000000     0.432030000000    -0.109194   
C117     C      0.828490000000     0.452460000000     0.471530000000    -0.102697   
C118     C      0.726490000000     0.452350000000     0.439910000000    -0.137304   
C119     C      0.800680000000     0.499090000000     0.462650000000     0.0265711  
C120     C      0.756010000000     0.498250000000     0.444100000000     0.043027   
C121     C      0.874000000000     0.549910000000     0.472760000000     0.0174687  
C122     C      0.821980000000     0.544770000000     0.485090000000    -0.103853   
C123     C      0.369300000000     0.464100000000     0.556390000000     0.0165811  
C124     C      0.177420000000     0.551500000000     0.600870000000     0.0236516  
C125     C      0.182530000000     0.460230000000     0.589460000000     0.137355   
C126     C      0.226740000000     0.558360000000     0.580090000000    -0.10858    
C127     C      0.334910000000     0.469580000000     0.598000000000    -0.104322   
C128     C      0.231320000000     0.465680000000     0.567050000000    -0.135302   
C129     C      0.304110000000     0.514000000000     0.589840000000     0.0228276  
C130     C      0.256320000000     0.512130000000     0.583200000000     0.0435847  
C131     C      0.369250000000     0.556370000000     0.546360000000     0.0160397  
C132     C      0.332810000000     0.560730000000     0.586620000000    -0.104792   
C133     C      0.809740000000     0.462460000000     0.008620000000     0.0164078  
C134     C      0.622030000000     0.556630000000     0.002260000000     0.020926   
C135     C      0.620990000000     0.462940000000     0.002540000000     0.136283   
C136     C      0.668110000000     0.554800000000     0.974180000000    -0.108489   
C137     C      0.761090000000     0.463750000000     0.031860000000    -0.104484   
C138     C      0.667810000000     0.463740000000     0.975410000000    -0.133944   
C139     C      0.735260000000     0.509560000000     0.015900000000     0.0274297  
C140     C      0.695090000000     0.509370000000     0.988530000000     0.0398551  
C141     C      0.810470000000     0.555000000000     0.006980000000     0.0163006  
C142     C      0.761790000000     0.555470000000     0.030220000000    -0.105222   
C143     C      0.293920000000     0.465400000000     0.988710000000     0.0204734  
C144     C      0.123770000000     0.553920000000     0.106570000000     0.0255196  
C145     C      0.123870000000     0.462710000000     0.106450000000     0.139619   
C146     C      0.164270000000     0.557060000000     0.070990000000    -0.106931   
C147     C      0.261070000000     0.462160000000     0.031780000000    -0.102105   
C148     C      0.165630000000     0.460640000000     0.071880000000    -0.137845   
C149     C      0.234040000000     0.509700000000     0.040880000000     0.020247   
C150     C      0.191200000000     0.509210000000     0.063710000000     0.0443669  
C151     C      0.294330000000     0.555920000000     0.990090000000     0.0186109  
C152     C      0.260470000000     0.557800000000     0.032530000000    -0.100236   
C153     C      0.964590000000     0.460260000000     0.694400000000     0.0188797  
C154     C      0.018100000000     0.553820000000     0.896130000000     0.0243904  
C155     C      0.019840000000     0.462270000000     0.897410000000     0.137072   
C156     C      0.992170000000     0.554760000000     0.848240000000    -0.107454   
C157     C      0.990120000000     0.458680000000     0.742630000000    -0.101294   
C158     C      0.995120000000     0.459430000000     0.848640000000    -0.136079   
C159     C      0.987720000000     0.506580000000     0.771050000000     0.0176026  
C160     C      0.995240000000     0.507030000000     0.819920000000     0.0418485  
C161     C      0.961250000000     0.550690000000     0.694540000000     0.0177873  
C162     C      0.986930000000     0.554360000000     0.742470000000    -0.0999135  
C163     C      0.071510000000     0.468660000000     0.376990000000     0.0179772  
C164     C      0.932120000000     0.554250000000     0.219320000000     0.0251003  
C165     C      0.933610000000     0.463100000000     0.220060000000     0.139218   
C166     C      0.975040000000     0.558050000000     0.251980000000    -0.107113   
C167     C      0.029300000000     0.463860000000     0.343540000000    -0.0983469  
C168     C      0.976460000000     0.461960000000     0.253300000000    -0.137013   
C169     C      0.015680000000     0.511640000000     0.318260000000     0.0163235  
C170     C      0.987240000000     0.510580000000     0.278330000000     0.0426289  
C171     C      0.068120000000     0.558640000000     0.377890000000     0.0174231  
C172     C      0.026270000000     0.560320000000     0.343510000000    -0.0983674  
C173     C      0.008870000000     0.650190000000     0.498230000000    -0.00193158 
C174     C      0.062840000000     0.863290000000     0.569900000000     0.0069261  
C175     C      0.995900000000     0.863540000000     0.515530000000     0.123755   
C176     C      0.074350000000     0.809660000000     0.559430000000    -0.0964683  
C177     C      0.996700000000     0.704030000000     0.505560000000    -0.0889872  
C178     C      0.004680000000     0.811080000000     0.498840000000    -0.127991   
C179     C      0.033690000000     0.731720000000     0.534310000000     0.0117159  
C180     C      0.035220000000     0.782000000000     0.533560000000     0.0391474  
C181     C      0.066750000000     0.648380000000     0.560480000000    -0.00204467 
C182     C      0.062390000000     0.703130000000     0.571050000000    -0.0891867  
C183     C      0.000610000000     0.148460000000     0.557550000000    -0.00130441 
C184     C      0.068370000000     0.365250000000     0.514060000000     0.00779091 
C185     C      0.010740000000     0.362030000000     0.578310000000     0.119659   
C186     C      0.060470000000     0.311910000000     0.499620000000    -0.0974647  
C187     C      0.008000000000     0.201570000000     0.572600000000    -0.0892014  
C188     C      0.998480000000     0.308450000000     0.568440000000    -0.12707    
C189     C      0.035350000000     0.231570000000     0.535830000000     0.0119023  
C190     C      0.034170000000     0.281870000000     0.537080000000     0.0384654  
C191     C      0.058840000000     0.150880000000     0.495650000000     0.000676986
C192     C      0.070850000000     0.204770000000     0.504240000000    -0.0901357  
C193     C      0.687540000000     0.055930000000     0.464110000000     0.0195252  
C194     C      0.877060000000     0.966850000000     0.508020000000     0.0198043  
C195     C      0.877890000000     0.058670000000     0.522510000000     0.134825   
C196     C      0.844460000000     0.974830000000     0.465430000000    -0.10623    
C197     C      0.736550000000     0.062980000000     0.485420000000    -0.104672   
C198     C      0.842440000000     0.065410000000     0.481520000000    -0.133842   
C199     C      0.766220000000     0.016800000000     0.481800000000     0.0253386  
C200     C      0.813820000000     0.019000000000     0.474920000000     0.0373997  
C201     C      0.693350000000     0.965200000000     0.472880000000     0.0195852  
C202     C      0.741430000000     0.969690000000     0.496540000000    -0.104734   
C203     C      0.382970000000     0.955950000000     0.573520000000     0.0157892  
C204     C      0.202690000000     0.050550000000     0.555790000000     0.0246104  
C205     C      0.199870000000     0.956670000000     0.555390000000     0.138228   
C206     C      0.252570000000     0.047720000000     0.536010000000    -0.113264   
C207     C      0.337570000000     0.956560000000     0.602760000000    -0.103989   
C208     C      0.250630000000     0.956530000000     0.537120000000    -0.136928   
C209     C      0.310210000000     0.001550000000     0.588990000000     0.0290788  
C210     C      0.275650000000     0.001830000000     0.554790000000     0.0460712  
C211     C      0.380960000000     0.050830000000     0.575460000000     0.0112777  
C212     C      0.335990000000     0.046750000000     0.604980000000    -0.102468   
C213     C      0.922900000000     0.650560000000     0.065680000000    -0.000454023
C214     C      0.002550000000     0.865400000000     0.032630000000     0.00989974 
C215     C      0.936280000000     0.863870000000     0.087770000000     0.124851   
C216     C      0.995210000000     0.812150000000     0.017340000000    -0.0982593  
C217     C      0.927560000000     0.704220000000     0.080270000000    -0.0890978  
C218     C      0.922710000000     0.811450000000     0.074540000000    -0.128138   
C219     C      0.962250000000     0.732970000000     0.049440000000     0.0108785  
C220     C      0.962190000000     0.783290000000     0.049950000000     0.0386058  
C221     C      0.992180000000     0.650850000000     0.017030000000     0.000210854
C222     C      0.002530000000     0.705030000000     0.025820000000    -0.0897047  
C223     C      0.936870000000     0.366890000000     0.020430000000     0.00160697 
C224     C      0.987970000000     0.151150000000     0.088570000000     0.0122396  
C225     C      0.967500000000     0.154980000000     0.003780000000     0.124657   
C226     C      0.971880000000     0.203760000000     0.097890000000    -0.098647   
C227     C      0.950140000000     0.313880000000     0.009780000000    -0.0908954  
C228     C      0.947150000000     0.206590000000     0.007710000000    -0.127637   
C229     C      0.961440000000     0.284070000000     0.054620000000     0.0134892  
C230     C      0.963410000000     0.233830000000     0.052510000000     0.0392371  
C231     C      0.965420000000     0.365200000000     0.101150000000     0.00140052 
C232     C      0.979300000000     0.311130000000     0.098960000000    -0.0900346  
C233     C      0.809780000000     0.965600000000     0.982700000000     0.0185354  
C234     C      0.619830000000     0.059420000000     0.998880000000     0.0243736  
C235     C      0.621330000000     0.966560000000     0.989040000000     0.139458   
C236     C      0.660910000000     0.063780000000     0.963780000000    -0.112202   
C237     C      0.759430000000     0.970890000000     0.000300000000    -0.10316    
C238     C      0.661920000000     0.972490000000     0.953680000000    -0.137044   
C239     C      0.736430000000     0.016720000000     0.979940000000     0.0226435  
C240     C      0.690350000000     0.017620000000     0.965720000000     0.0443786  
C241     C      0.816590000000     0.056130000000     0.971460000000     0.0156854  
C242     C      0.765100000000     0.063370000000     0.985640000000    -0.101756   
C243     C      0.111740000000     0.960550000000     0.114090000000     0.0151136  
C244     C      0.297310000000     0.047160000000     0.047050000000     0.0231523  
C245     C      0.297850000000     0.954800000000     0.038340000000     0.136308   
C246     C      0.268760000000     0.042130000000     0.092890000000    -0.110468   
C247     C      0.159250000000     0.953400000000     0.089270000000    -0.100793   
C248     C      0.264830000000     0.950650000000     0.081860000000    -0.135572   
C249     C      0.188960000000     0.999870000000     0.088630000000     0.0235653  
C250     C      0.237130000000     0.997740000000     0.088820000000     0.0421221  
C251     C      0.116810000000     0.050960000000     0.104760000000     0.0180605  
C252     C      0.162550000000     0.046950000000     0.076700000000    -0.102977   
C253     C      0.030680000000     0.048090000000     0.701080000000     0.0182681  
C254     C      0.002250000000     0.957640000000     0.889380000000     0.0238397  
C255     C      0.007950000000     0.051470000000     0.887070000000     0.134657   
C256     C      0.036190000000     0.955650000000     0.846940000000    -0.111027   
C257     C      0.997370000000     0.046730000000     0.743930000000    -0.106834   
C258     C      0.041320000000     0.046310000000     0.844300000000    -0.134459   
C259     C      0.007080000000     0.000860000000     0.772620000000     0.0307624  
C260     C      0.029140000000     0.000670000000     0.816390000000     0.0422313  
C261     C      0.029220000000     0.954870000000     0.699250000000     0.0163335  
C262     C      0.997000000000     0.955450000000     0.743240000000    -0.105176   
C263     C      0.906110000000     0.968990000000     0.208220000000     0.0200873  
C264     C      0.042960000000     0.056420000000     0.366980000000     0.0233085  
C265     C      0.042810000000     0.964960000000     0.365260000000     0.137792   
C266     C      0.997960000000     0.059120000000     0.337140000000    -0.106191   
C267     C      0.945860000000     0.964340000000     0.244680000000    -0.100085   
C268     C      0.997400000000     0.963730000000     0.335930000000    -0.134961   
C269     C      0.959040000000     0.012470000000     0.269560000000     0.0147249  
C270     C      0.986530000000     0.011820000000     0.310200000000     0.0398701  
C271     C      0.910380000000     0.058780000000     0.205800000000     0.017552   
C272     C      0.949260000000     0.060970000000     0.243660000000    -0.0989254  
Cu1      Cu     0.962910000000     0.060430000000     0.046810000000     1.21593    
Cu2      Cu     0.959800000000     0.956990000000     0.049300000000     1.21203    
Cu3      Cu     0.041340000000     0.058840000000     0.535320000000     1.20448    
Cu4      Cu     0.038990000000     0.955470000000     0.532260000000     1.22074    
Cu5      Cu     0.967440000000     0.560250000000     0.055930000000     1.19953    
Cu6      Cu     0.967320000000     0.456810000000     0.056150000000     1.20621    
Cu7      Cu     0.024370000000     0.559040000000     0.540080000000     1.19688    
Cu8      Cu     0.026260000000     0.455460000000     0.537590000000     1.21246    
Cu9      Cu     0.457250000000     0.059850000000     0.015990000000     1.20763    
Cu10     Cu     0.460300000000     0.956340000000     0.011480000000     1.21051    
Cu11     Cu     0.536890000000     0.059440000000     0.529550000000     1.22276    
Cu12     Cu     0.539640000000     0.955760000000     0.531930000000     1.20418    
Cu13     Cu     0.458460000000     0.559950000000     0.999210000000     1.21995    
Cu14     Cu     0.458190000000     0.456430000000     0.998360000000     1.22377    
Cu15     Cu     0.528890000000     0.559320000000     0.509250000000     1.21052    
Cu16     Cu     0.526630000000     0.455720000000     0.511110000000     1.21091    
H1       H      0.557710000000     0.585120000000     0.732630000000     0.0491535  
H2       H      0.425030000000     0.459240000000     0.807250000000     0.0484395  
H3       H      0.619220000000     0.465680000000     0.685430000000     0.0341462  
H4       H      0.560710000000     0.432850000000     0.733640000000     0.0454313  
H5       H      0.495900000000     0.428840000000     0.776810000000     0.0482323  
H6       H      0.492170000000     0.587030000000     0.775200000000     0.0730811  
H7       H      0.580890000000     0.587080000000     0.644920000000     0.0467788  
H8       H      0.454850000000     0.428560000000     0.854540000000     0.03912    
H9       H      0.514220000000     0.445420000000     0.691520000000     0.054513   
H10      H      0.527890000000     0.565480000000     0.823510000000     0.0707078  
H11      H      0.583200000000     0.430500000000     0.645650000000     0.0405138  
H12      H      0.512000000000     0.569930000000     0.690430000000     0.0583044  
H13      H      0.530850000000     0.453080000000     0.824870000000     0.0546232  
H14      H      0.452300000000     0.585890000000     0.854350000000     0.041684   
H15      H      0.617740000000     0.553490000000     0.685240000000     0.0350046  
H16      H      0.443310000000     0.425950000000     0.294570000000     0.0585106  
H17      H      0.416330000000     0.557550000000     0.178650000000     0.0426475  
H18      H      0.522300000000     0.558640000000     0.328350000000     0.0298871  
H19      H      0.446890000000     0.586200000000     0.290710000000     0.0469169  
H20      H      0.485040000000     0.584040000000     0.227840000000     0.0472067  
H21      H      0.476490000000     0.422910000000     0.229110000000     0.0686286  
H22      H      0.479600000000     0.428750000000     0.375030000000     0.0400952  
H23      H      0.462590000000     0.583120000000     0.143280000000     0.0352021  
H24      H      0.414780000000     0.550930000000     0.331410000000     0.0568901  
H25      H      0.518390000000     0.456490000000     0.197150000000     0.0656005  
H26      H      0.483490000000     0.585580000000     0.371360000000     0.037554   
H27      H      0.412610000000     0.464790000000     0.333290000000     0.0615699  
H28      H      0.522290000000     0.545430000000     0.195040000000     0.057544   
H29      H      0.459790000000     0.425960000000     0.142520000000     0.0340287  
H30      H      0.519640000000     0.451450000000     0.330920000000     0.0309649  
H31      H      0.567200000000     0.798300000000     0.453410000000     0.0415757  
H32      H      0.538020000000     0.644500000000     0.583290000000     0.0468441  
H33      H      0.471340000000     0.869990000000     0.532080000000     0.0295426  
H34      H      0.474960000000     0.794030000000     0.571200000000     0.0419927  
H35      H      0.495650000000     0.717720000000     0.586510000000     0.0469522  
H36      H      0.592870000000     0.723430000000     0.470690000000     0.0655497  
H37      H      0.581480000000     0.886850000000     0.468930000000     0.0305513  
H38      H      0.479580000000     0.629190000000     0.567260000000     0.0289689  
H39      H      0.532130000000     0.804810000000     0.596670000000     0.0527777  
H40      H      0.536420000000     0.707580000000     0.446740000000     0.0557449  
H41      H      0.495260000000     0.882040000000     0.590390000000     0.0301171  
H42      H      0.603160000000     0.810460000000     0.505270000000     0.0552721  
H43      H      0.463270000000     0.706040000000     0.532330000000     0.0492785  
H44      H      0.579680000000     0.634110000000     0.457130000000     0.0139146  
H45      H      0.521000000000     0.869790000000     0.463520000000     0.0301428  
H46      H      0.505460000000     0.297800000000     0.591450000000     0.0436381  
H47      H      0.521840000000     0.145840000000     0.456250000000     0.0506702  
H48      H      0.595450000000     0.369380000000     0.508170000000     0.0397091  
H49      H      0.589010000000     0.294280000000     0.467550000000     0.0440849  
H50      H      0.564650000000     0.218800000000     0.451140000000     0.0477948  
H51      H      0.477040000000     0.223470000000     0.574730000000     0.066545   
H52      H      0.488860000000     0.386830000000     0.576900000000     0.0309432  
H53      H      0.581080000000     0.129510000000     0.467460000000     0.0293094  
H54      H      0.530550000000     0.306240000000     0.445850000000     0.0532074  
H55      H      0.534830000000     0.205970000000     0.593680000000     0.06007    
H56      H      0.569040000000     0.382860000000     0.451290000000     0.032077   
H57      H      0.465350000000     0.310320000000     0.542960000000     0.0557015  
H58      H      0.601160000000     0.205390000000     0.502090000000     0.0527167  
H59      H      0.489410000000     0.133580000000     0.585020000000     0.01303    
H60      H      0.549640000000     0.370150000000     0.579100000000     0.0342384  
H61      H      0.398760000000     0.796610000000     0.961360000000     0.0462561  
H62      H      0.528190000000     0.648850000000     0.012770000000     0.0460935  
H63      H      0.447610000000     0.867590000000     0.077560000000     0.0281816  
H64      H      0.488580000000     0.793160000000     0.079990000000     0.0423762  
H65      H      0.515750000000     0.719660000000     0.058110000000     0.0470264  
H66      H      0.430200000000     0.725750000000     0.933520000000     0.0688739  
H67      H      0.411180000000     0.887020000000     0.954560000000     0.0365349  
H68      H      0.498710000000     0.628730000000     0.065210000000     0.0279724  
H69      H      0.526810000000     0.808500000000     0.030840000000     0.0557159  
H70      H      0.394100000000     0.703920000000     0.981700000000     0.0594274  
H71      H      0.508000000000     0.883190000000     0.067370000000     0.0379257  
H72      H      0.455110000000     0.814320000000     0.937530000000     0.0556673  
H73      H      0.457530000000     0.702510000000     0.076540000000     0.0495582  
H74      H      0.420600000000     0.634800000000     0.938060000000     0.0199301  
H75      H      0.393560000000     0.866060000000     0.012650000000     0.0349155  
H76      H      0.400070000000     0.218410000000     0.959010000000     0.044651   
H77      H      0.475820000000     0.369850000000     0.068880000000     0.0531058  
H78      H      0.518500000000     0.147160000000     0.989170000000     0.0293251  
H79      H      0.530740000000     0.221370000000     0.030270000000     0.0429411  
H80      H      0.516890000000     0.296940000000     0.054880000000     0.0497376  
H81      H      0.384440000000     0.293120000000     0.984530000000     0.0683547  
H82      H      0.392690000000     0.129350000000     0.978110000000     0.0329595  
H83      H      0.524980000000     0.385710000000     0.032960000000     0.0398734  
H84      H      0.487710000000     0.208570000000     0.075900000000     0.053987   
H85      H      0.428060000000     0.308430000000     0.940640000000     0.0578366  
H86      H      0.520600000000     0.132590000000     0.051850000000     0.0323485  
H87      H      0.387510000000     0.205210000000     0.021010000000     0.0570092  
H88      H      0.527260000000     0.309690000000     0.992480000000     0.0515079  
H89      H      0.393200000000     0.382190000000     0.966070000000     0.0177175  
H90      H      0.445490000000     0.147010000000     0.947640000000     0.0314584  
H91      H      0.476370000000     0.092160000000     0.790940000000     0.04539    
H92      H      0.609810000000     0.967580000000     0.716740000000     0.0495213  
H93      H      0.405230000000     0.972280000000     0.822010000000     0.0313897  
H94      H      0.472900000000     0.936680000000     0.789120000000     0.0458211  
H95      H      0.542570000000     0.935890000000     0.753190000000     0.0493285  
H96      H      0.544580000000     0.090750000000     0.752900000000     0.0694007  
H97      H      0.437780000000     0.092830000000     0.871880000000     0.0351328  
H98      H      0.579350000000     0.933800000000     0.671980000000     0.0399229  
H99      H      0.509900000000     0.953780000000     0.838690000000     0.0564753  
H100     H      0.504670000000     0.073630000000     0.706210000000     0.0595505  
H101     H      0.431970000000     0.936100000000     0.868080000000     0.0390063  
H102     H      0.513340000000     0.072270000000     0.839470000000     0.0561726  
H103     H      0.504050000000     0.954030000000     0.705150000000     0.0541759  
H104     H      0.575770000000     0.090840000000     0.667550000000     0.028579   
H105     H      0.407510000000     0.061260000000     0.824850000000     0.029836   
H106     H      0.447270000000     0.075330000000     0.245680000000     0.0574343  
H107     H      0.433230000000     0.957430000000     0.379670000000     0.0439594  
H108     H      0.530870000000     0.958350000000     0.186160000000     0.0334931  
H109     H      0.478160000000     0.917170000000     0.239200000000     0.044753   
H110     H      0.468260000000     0.919490000000     0.313580000000     0.0478739  
H111     H      0.494320000000     0.077630000000     0.301830000000     0.0666249  
H112     H      0.469310000000     0.081350000000     0.161080000000     0.040249   
H113     H      0.483640000000     0.925000000000     0.400100000000     0.0334172  
H114     H      0.426960000000     0.942120000000     0.211380000000     0.0541643  
H115     H      0.538910000000     0.039430000000     0.323630000000     0.0591709  
H116     H      0.488300000000     0.924970000000     0.152300000000     0.0367443  
H117     H      0.413380000000     0.034970000000     0.211400000000     0.0600682  
H118     H      0.526470000000     0.941270000000     0.326820000000     0.0522366  
H119     H      0.500010000000     0.080930000000     0.388810000000     0.0268505  
H120     H      0.517790000000     0.056000000000     0.193830000000     0.0310757  
H121     H      0.817710000000     0.422210000000     0.447650000000     0.0519251  
H122     H      0.702220000000     0.558650000000     0.503400000000     0.0535609  
H123     H      0.877260000000     0.558000000000     0.433870000000     0.0302239  
H124     H      0.804720000000     0.579390000000     0.475200000000     0.0501615  
H125     H      0.747840000000     0.577540000000     0.429170000000     0.0505479  
H126     H      0.745040000000     0.417590000000     0.446540000000     0.0680296  
H127     H      0.899670000000     0.425910000000     0.474010000000     0.0403099  
H128     H      0.664950000000     0.579520000000     0.455870000000     0.0486054  
H129     H      0.818450000000     0.541510000000     0.524600000000     0.0643171  
H130     H      0.712710000000     0.449770000000     0.402760000000     0.0615411  
H131     H      0.888400000000     0.581700000000     0.492740000000     0.0371974  
H132     H      0.823330000000     0.440780000000     0.509270000000     0.0676312  
H133     H      0.712060000000     0.538280000000     0.395810000000     0.056176   
H134     H      0.660880000000     0.424530000000     0.465600000000     0.0212695  
H135     H      0.886060000000     0.461570000000     0.422140000000     0.0345675  
H136     H      0.316150000000     0.434910000000     0.604400000000     0.0562986  
H137     H      0.180210000000     0.550280000000     0.640540000000     0.0476374  
H138     H      0.350580000000     0.557900000000     0.511420000000     0.0294051  
H139     H      0.312270000000     0.594100000000     0.579110000000     0.0469576  
H140     H      0.242100000000     0.588770000000     0.601090000000     0.0506021  
H141     H      0.250590000000     0.431380000000     0.573540000000     0.0689881  
H142     H      0.392750000000     0.432600000000     0.564140000000     0.0385286  
H143     H      0.156340000000     0.584420000000     0.591960000000     0.0339451  
H144     H      0.351190000000     0.566710000000     0.621230000000     0.0608189  
H145     H      0.227040000000     0.468020000000     0.527560000000     0.0606976  
H146     H      0.392610000000     0.588860000000     0.548090000000     0.0362653  
H147     H      0.355520000000     0.475660000000     0.631280000000     0.0635104  
H148     H      0.224130000000     0.569810000000     0.542010000000     0.0529825  
H149     H      0.165040000000     0.428830000000     0.571580000000     0.030858   
H150     H      0.349250000000     0.455290000000     0.523350000000     0.0312293  
H151     H      0.743170000000     0.428790000000     0.024970000000     0.0567739  
H152     H      0.630080000000     0.563640000000     0.040600000000     0.0407778  
H153     H      0.806160000000     0.558530000000     0.967560000000     0.0282921  
H154     H      0.744470000000     0.590440000000     0.021950000000     0.0471573  
H155     H      0.686870000000     0.589770000000     0.978100000000     0.0488142  
H156     H      0.686310000000     0.428700000000     0.980110000000     0.0641573  
H157     H      0.828890000000     0.430000000000     0.022400000000     0.0366255  
H158     H      0.601310000000     0.588290000000     0.989000000000     0.0433652  
H159     H      0.766250000000     0.555440000000     0.069770000000     0.0593515  
H160     H      0.659960000000     0.465060000000     0.936420000000     0.0578893  
H161     H      0.830130000000     0.587620000000     0.019590000000     0.0347575  
H162     H      0.765590000000     0.465230000000     0.071380000000     0.06643    
H163     H      0.659640000000     0.552520000000     0.935370000000     0.0559484  
H164     H      0.599960000000     0.432240000000     0.987670000000     0.0225363  
H165     H      0.805350000000     0.457540000000     0.969350000000     0.0282145  
H166     H      0.237470000000     0.430920000000     0.024030000000     0.056704   
H167     H      0.138470000000     0.554920000000     0.143370000000     0.0465432  
H168     H      0.273370000000     0.556760000000     0.956500000000     0.0359232  
H169     H      0.236440000000     0.588630000000     0.024640000000     0.0469203  
H170     H      0.187780000000     0.586120000000     0.084950000000     0.0502878  
H171     H      0.190020000000     0.432430000000     0.085930000000     0.0781469  
H172     H      0.315970000000     0.432000000000     0.987060000000     0.0528287  
H173     H      0.101490000000     0.587040000000     0.102810000000     0.0378073  
H174     H      0.280470000000     0.566790000000     0.065520000000     0.0600439  
H175     H      0.152490000000     0.447810000000     0.036560000000     0.0712127  
H176     H      0.316730000000     0.589180000000     0.990460000000     0.0408132  
H177     H      0.281880000000     0.453240000000     0.064270000000     0.0781378  
H178     H      0.150160000000     0.568980000000     0.035770000000     0.0578041  
H179     H      0.101920000000     0.429810000000     0.099850000000     0.0296149  
H180     H      0.272190000000     0.466220000000     0.955620000000     0.0380549  
H181     H      0.973640000000     0.428070000000     0.762500000000     0.051775   
H182     H      0.056340000000     0.556690000000     0.888980000000     0.0460078  
H183     H      0.922900000000     0.549310000000     0.701800000000     0.0297682  
H184     H      0.968600000000     0.583870000000     0.762270000000     0.0453699  
H185     H      0.007920000000     0.585710000000     0.828240000000     0.0491417  
H186     H      0.012370000000     0.429230000000     0.828860000000     0.0752195  
H187     H      0.974130000000     0.427340000000     0.673290000000     0.0510143  
H188     H      0.008120000000     0.586960000000     0.916760000000     0.033586   
H189     H      0.023710000000     0.566030000000     0.735900000000     0.0595123  
H190     H      0.957960000000     0.448790000000     0.854650000000     0.0597858  
H191     H      0.968100000000     0.584420000000     0.673490000000     0.0402968  
H192     H      0.027610000000     0.449570000000     0.736350000000     0.075421   
H193     H      0.954570000000     0.563100000000     0.854820000000     0.0527893  
H194     H      0.008820000000     0.429680000000     0.918350000000     0.0274104  
H195     H      0.926200000000     0.458400000000     0.701340000000     0.0303389  
H196     H      0.038860000000     0.435100000000     0.317230000000     0.0502228  
H197     H      0.900130000000     0.555030000000     0.241980000000     0.0456067  
H198     H      0.100920000000     0.559530000000     0.356310000000     0.0309219  
H199     H      0.034500000000     0.589480000000     0.317160000000     0.0463567  
H200     H      0.967100000000     0.588050000000     0.277490000000     0.0486963  
H201     H      0.970200000000     0.432140000000     0.279490000000     0.069785   
H202     H      0.074590000000     0.435230000000     0.399400000000     0.036253   
H203     H      0.930450000000     0.587170000000     0.196040000000     0.0371781  
H204     H      0.994570000000     0.571450000000     0.363960000000     0.0533402  
H205     H      0.007700000000     0.451770000000     0.231660000000     0.0688108  
H206     H      0.067950000000     0.591740000000     0.400960000000     0.0345887  
H207     H      0.998660000000     0.450900000000     0.364630000000     0.0574963  
H208     H      0.005820000000     0.569030000000     0.230060000000     0.0592549  
H209     H      0.934930000000     0.430010000000     0.197010000000     0.0243499  
H210     H      0.103800000000     0.471190000000     0.354750000000     0.0336728  
H211     H      0.992690000000     0.719890000000     0.469180000000     0.0428139  
H212     H      0.040660000000     0.866170000000     0.602430000000     0.0494223  
H213     H      0.094900000000     0.641730000000     0.533630000000     0.0287352  
H214     H      0.098870000000     0.717210000000     0.573000000000     0.0431446  
H215     H      0.082480000000     0.793000000000     0.594690000000     0.0493174  
H216     H      0.969710000000     0.794050000000     0.493700000000     0.0657869  
H217     H      0.977640000000     0.631150000000     0.483650000000     0.0306663  
H218     H      0.096060000000     0.882650000000     0.578140000000     0.0414797  
H219     H      0.045670000000     0.707910000000     0.606700000000     0.0527615  
H220     H      0.022600000000     0.811970000000     0.463510000000     0.0596231  
H221     H      0.077030000000     0.629830000000     0.594220000000     0.0324329  
H222     H      0.962550000000     0.706720000000     0.524590000000     0.0554855  
H223     H      0.106440000000     0.807970000000     0.536890000000     0.0537455  
H224     H      0.980570000000     0.884010000000     0.484990000000     0.0135073  
H225     H      0.037560000000     0.646680000000     0.471420000000     0.0315465  
H226     H      0.972390000000     0.216860000000     0.578440000000     0.0471951  
H227     H      0.098200000000     0.368090000000     0.539440000000     0.0505843  
H228     H      0.030690000000     0.147630000000     0.468210000000     0.0282415  
H229     H      0.073200000000     0.221860000000     0.468270000000     0.0432315  
H230     H      0.095830000000     0.296470000000     0.492620000000     0.0482157  
H231     H      0.994440000000     0.290500000000     0.603840000000     0.069082   
H232     H      0.988140000000     0.127330000000     0.589000000000     0.0385977  
H233     H      0.078610000000     0.385950000000     0.481600000000     0.0299584  
H234     H      0.105850000000     0.207080000000     0.521620000000     0.054683   
H235     H      0.963950000000     0.307000000000     0.549980000000     0.0584392  
H236     H      0.090450000000     0.132070000000     0.481510000000     0.0320006  
H237     H      0.027380000000     0.202380000000     0.607130000000     0.0581736  
H238     H      0.040090000000     0.310940000000     0.465710000000     0.0502663  
H239     H      0.978250000000     0.379950000000     0.591350000000     0.0161254  
H240     H      0.972980000000     0.146360000000     0.529460000000     0.0339066  
H241     H      0.752020000000     0.093740000000     0.464960000000     0.0480488  
H242     H      0.855730000000     0.957050000000     0.539920000000     0.0546512  
H243     H      0.698470000000     0.960050000000     0.433720000000     0.0265637  
H244     H      0.760810000000     0.935720000000     0.488810000000     0.0500436  
H245     H      0.825610000000     0.940840000000     0.456250000000     0.0477653  
H246     H      0.821800000000     0.098650000000     0.489430000000     0.0663444  
H247     H      0.666000000000     0.088670000000     0.472560000000     0.0367917  
H248     H      0.900040000000     0.935250000000     0.499620000000     0.0504726  
H249     H      0.736560000000     0.970640000000     0.536010000000     0.0682951  
H250     H      0.861920000000     0.072880000000     0.447820000000     0.055888   
H251     H      0.675550000000     0.932020000000     0.486960000000     0.0375782  
H252     H      0.733570000000     0.073810000000     0.523650000000     0.0699559  
H253     H      0.866420000000     0.982620000000     0.433410000000     0.0516197  
H254     H      0.901620000000     0.090870000000     0.522110000000     0.0233889  
H255     H      0.690920000000     0.054080000000     0.424460000000     0.0257055  
H256     H      0.318530000000     0.921640000000     0.598970000000     0.0559952  
H257     H      0.204410000000     0.057780000000     0.594940000000     0.04261    
H258     H      0.371710000000     0.062810000000     0.538610000000     0.0536127  
H259     H      0.315290000000     0.080880000000     0.603410000000     0.0518811  
H260     H      0.271560000000     0.082080000000     0.543420000000     0.0553516  
H261     H      0.267600000000     0.921410000000     0.545900000000     0.0667752  
H262     H      0.406230000000     0.927100000000     0.588500000000     0.0336706  
H263     H      0.184980000000     0.082430000000     0.538950000000     0.0393853  
H264     H      0.345750000000     0.043110000000     0.643380000000     0.0552474  
H265     H      0.249850000000     0.957520000000     0.497320000000     0.0645025  
H266     H      0.403090000000     0.080030000000     0.591540000000     0.0488776  
H267     H      0.346820000000     0.958400000000     0.641410000000     0.0577014  
H268     H      0.250640000000     0.045550000000     0.496300000000     0.0627813  
H269     H      0.181020000000     0.926760000000     0.536480000000     0.025095   
H270     H      0.374600000000     0.944960000000     0.536150000000     0.0341557  
H271     H      0.891790000000     0.720080000000     0.077740000000     0.0428132  
H272     H      0.028840000000     0.867640000000     0.061850000000     0.0460121  
H273     H      0.970040000000     0.646420000000     0.984480000000     0.0286975  
H274     H      0.011170000000     0.720860000000     0.990280000000     0.0422437  
H275     H      0.030700000000     0.795510000000     0.016320000000     0.0470991  
H276     H      0.911200000000     0.793400000000     0.108140000000     0.0662133  
H277     H      0.904350000000     0.630490000000     0.094560000000     0.0308527  
H278     H      0.017600000000     0.885680000000     0.001890000000     0.0291832  
H279     H      0.033940000000     0.708080000000     0.049210000000     0.0520748  
H280     H      0.892180000000     0.812530000000     0.049800000000     0.0576414  
H281     H      0.025920000000     0.631720000000     0.010450000000     0.0312874  
H282     H      0.939320000000     0.706070000000     0.118170000000     0.0545507  
H283     H      0.980520000000     0.811570000000     0.980490000000     0.0503163  
H284     H      0.903520000000     0.883710000000     0.096910000000     0.0150147  
H285     H      0.901400000000     0.647360000000     0.032550000000     0.0289298  
H286     H      0.920020000000     0.297750000000     0.990130000000     0.0451137  
H287     H      0.026240000000     0.149990000000     0.081440000000     0.0454592  
H288     H      0.928850000000     0.369120000000     0.114610000000     0.0328967  
H289     H      0.965450000000     0.294090000000     0.132180000000     0.0442984  
H290     H      0.999390000000     0.220560000000     0.120690000000     0.047862   
H291     H      0.957040000000     0.226180000000     0.974400000000     0.0711418  
H292     H      0.937640000000     0.387990000000     0.986500000000     0.0308008  
H293     H      0.982210000000     0.129550000000     0.121650000000     0.0275673  
H294     H      0.018200000000     0.308510000000     0.099510000000     0.0563815  
H295     H      0.908250000000     0.204040000000     0.008760000000     0.0593767  
H296     H      0.989010000000     0.383930000000     0.126920000000     0.0354059  
H297     H      0.981360000000     0.313550000000     0.985930000000     0.0603893  
H298     H      0.938650000000     0.202800000000     0.118680000000     0.0502416  
H299     H      0.947580000000     0.135190000000     0.975660000000     0.0271853  
H300     H      0.900490000000     0.368840000000     0.034800000000     0.0299008  
H301     H      0.741220000000     0.936270000000     0.992470000000     0.0594607  
H302     H      0.633780000000     0.061850000000     0.035990000000     0.0401583  
H303     H      0.818550000000     0.053410000000     0.931760000000     0.0415314  
H304     H      0.752360000000     0.093160000000     0.962130000000     0.0485966  
H305     H      0.679770000000     0.097740000000     0.973160000000     0.0492604  
H306     H      0.681970000000     0.938150000000     0.950240000000     0.0664716  
H307     H      0.825720000000     0.933120000000     0.000230000000     0.0394674  
H308     H      0.596550000000     0.091540000000     0.993510000000     0.0335111  
H309     H      0.763010000000     0.075750000000     0.023480000000     0.0556159  
H310     H      0.646580000000     0.977960000000     0.917460000000     0.0636199  
H311     H      0.836640000000     0.089250000000     0.982100000000     0.0436605  
H312     H      0.759880000000     0.974320000000     0.039950000000     0.0685872  
H313     H      0.647040000000     0.068580000000     0.926880000000     0.0580422  
H314     H      0.599000000000     0.936170000000     0.975610000000     0.0261652  
H315     H      0.809170000000     0.958670000000     0.943460000000     0.0340837  
H316     H      0.176670000000     0.923650000000     0.109540000000     0.0504474  
H317     H      0.273010000000     0.053900000000     0.016620000000     0.0451042  
H318     H      0.125410000000     0.055360000000     0.143370000000     0.0325605  
H319     H      0.182020000000     0.081040000000     0.083360000000     0.0515773  
H320     H      0.251380000000     0.077010000000     0.101590000000     0.0512803  
H321     H      0.243210000000     0.917530000000     0.076600000000     0.0676137  
H322     H      0.089630000000     0.927740000000     0.107640000000     0.0467727  
H323     H      0.320230000000     0.079840000000     0.050440000000     0.0390943  
H324     H      0.154260000000     0.046480000000     0.037820000000     0.0672742  
H325     H      0.286250000000     0.944160000000     0.114490000000     0.0597805  
H326     H      0.097810000000     0.084370000000     0.093070000000     0.0433811  
H327     H      0.153490000000     0.941030000000     0.051830000000     0.0641059  
H328     H      0.293460000000     0.036000000000     0.123130000000     0.0575241  
H329     H      0.321770000000     0.922740000000     0.039190000000     0.0233079  
H330     H      0.117930000000     0.962910000000     0.153350000000     0.0397366  
H331     H      0.999290000000     0.081400000000     0.763990000000     0.0645553  
H332     H      0.966030000000     0.951140000000     0.876040000000     0.0412866  
H333     H      0.065750000000     0.947840000000     0.711360000000     0.0379264  
H334     H      0.000180000000     0.920380000000     0.762380000000     0.0505589  
H335     H      0.032420000000     0.920340000000     0.828330000000     0.0497917  
H336     H      0.042740000000     0.080500000000     0.823360000000     0.0709466  
H337     H      0.021790000000     0.080680000000     0.679080000000     0.0426383  
H338     H      0.010980000000     0.926930000000     0.913900000000     0.0351513  
H339     H      0.959990000000     0.956860000000     0.730750000000     0.0658442  
H340     H      0.077580000000     0.042290000000     0.858480000000     0.066295   
H341     H      0.018690000000     0.923710000000     0.676070000000     0.0472027  
H342     H      0.960750000000     0.045230000000     0.730290000000     0.0711834  
H343     H      0.072680000000     0.955580000000     0.861020000000     0.0587013  
H344     H      0.021960000000     0.081160000000     0.909980000000     0.043689   
H345     H      0.067160000000     0.053010000000     0.714340000000     0.0357851  
H346     H      0.933920000000     0.936770000000     0.271220000000     0.0500101  
H347     H      0.073430000000     0.058810000000     0.342330000000     0.0468246  
H348     H      0.875920000000     0.060390000000     0.224450000000     0.0266393  
H349     H      0.938330000000     0.089580000000     0.269570000000     0.0431736  
H350     H      0.003030000000     0.090460000000     0.312500000000     0.0474689  
H351     H      0.000890000000     0.932540000000     0.310810000000     0.0717218  
H352     H      0.903800000000     0.935220000000     0.186290000000     0.050075   
H353     H      0.044760000000     0.089050000000     0.390610000000     0.034517   
H354     H      0.982210000000     0.073050000000     0.225980000000     0.0546365  
H355     H      0.967670000000     0.955510000000     0.360390000000     0.05876    
H356     H      0.912700000000     0.091420000000     0.182210000000     0.0352085  
H357     H      0.977480000000     0.950010000000     0.226130000000     0.0745535  
H358     H      0.968040000000     0.067760000000     0.361210000000     0.0510577  
H359     H      0.043550000000     0.931620000000     0.387980000000     0.0275513  
H360     H      0.872450000000     0.972550000000     0.228100000000     0.027696   
N1       N      0.453830000000     0.507430000000     0.859050000000    -0.192814   
N2       N      0.576010000000     0.508660000000     0.640800000000    -0.185251   
N3       N      0.453820000000     0.504570000000     0.138370000000    -0.19377    
N4       N      0.491390000000     0.506980000000     0.375470000000    -0.187614   
N5       N      0.527030000000     0.628300000000     0.509340000000    -0.244595   
N6       N      0.544050000000     0.886910000000     0.534070000000    -0.232643   
N7       N      0.538090000000     0.128340000000     0.528850000000    -0.244839   
N8       N      0.522850000000     0.386950000000     0.509920000000    -0.23346    
N9       N      0.456510000000     0.628550000000     0.003350000000    -0.246504   
N10      N      0.465000000000     0.887820000000     0.006320000000    -0.233162   
N11      N      0.460480000000     0.387520000000     0.996070000000    -0.243907   
N12      N      0.453310000000     0.128470000000     0.021180000000    -0.233459   
N13      N      0.575760000000     0.012230000000     0.665100000000    -0.193401   
N14      N      0.438640000000     0.014200000000     0.875570000000    -0.188261   
N15      N      0.488900000000     0.003900000000     0.400210000000    -0.194835   
N16      N      0.481420000000     0.003810000000     0.151660000000    -0.187563   
N17      N      0.660100000000     0.502860000000     0.472760000000    -0.192042   
N18      N      0.899360000000     0.504290000000     0.483430000000    -0.186677   
N19      N      0.155370000000     0.505820000000     0.584120000000    -0.193297   
N20      N      0.395810000000     0.509930000000     0.548690000000    -0.187942   
N21      N      0.595560000000     0.510110000000     0.998420000000    -0.193654   
N22      N      0.835260000000     0.508680000000     0.017450000000    -0.187597   
N23      N      0.097560000000     0.508340000000     0.099360000000    -0.194774   
N24      N      0.321560000000     0.510480000000     0.991550000000    -0.184683   
N25      N      0.008550000000     0.508250000000     0.922280000000    -0.195215   
N26      N      0.975080000000     0.505990000000     0.669200000000    -0.185222   
N27      N      0.933900000000     0.508500000000     0.191840000000    -0.194261   
N28      N      0.066570000000     0.513220000000     0.405570000000    -0.188403   
N29      N      0.040380000000     0.886730000000     0.528730000000    -0.244417   
N30      N      0.022290000000     0.627920000000     0.543790000000    -0.231725   
N31      N      0.025580000000     0.386550000000     0.534190000000    -0.243576   
N32      N      0.044550000000     0.127410000000     0.540300000000    -0.233409   
N33      N      0.903940000000     0.011990000000     0.518010000000    -0.191885   
N34      N      0.666180000000     0.010120000000     0.481080000000    -0.189736   
N35      N      0.176400000000     0.004490000000     0.547700000000    -0.194768   
N36      N      0.407320000000     0.004060000000     0.572390000000    -0.185013   
N37      N      0.958140000000     0.888130000000     0.046680000000    -0.245182   
N38      N      0.969250000000     0.629040000000     0.058640000000    -0.233691   
N39      N      0.961370000000     0.129170000000     0.049260000000    -0.24626    
N40      N      0.970280000000     0.388080000000     0.054160000000    -0.232736   
N41      N      0.594300000000     0.012540000000     0.993730000000    -0.195765   
N42      N      0.835970000000     0.010920000000     0.992140000000    -0.185802   
N43      N      0.323950000000     0.001640000000     0.038330000000    -0.194405   
N44      N      0.089260000000     0.006100000000     0.098160000000    -0.185496   
N45      N      0.003390000000     0.005380000000     0.914700000000    -0.192169   
N46      N      0.028120000000     0.002080000000     0.673190000000    -0.184147   
N47      N      0.044970000000     0.010180000000     0.393780000000    -0.194234   
N48      N      0.913710000000     0.012770000000     0.179210000000    -0.187583   
O1       O      0.938040000000     0.049890000000     0.110430000000    -0.489866   
O2       O      0.986220000000     0.048500000000     0.982800000000    -0.460722   
O3       O      0.901610000000     0.049860000000     0.019390000000    -0.480308   
O4       O      0.025700000000     0.047660000000     0.069520000000    -0.480303   
O5       O      0.022360000000     0.967160000000     0.074170000000    -0.477911   
O6       O      0.897330000000     0.969630000000     0.025810000000    -0.48142    
O7       O      0.981640000000     0.968120000000     0.984500000000    -0.484925   
O8       O      0.936020000000     0.969530000000     0.113010000000    -0.471139   
O9       O      0.035390000000     0.043940000000     0.602770000000    -0.480718   
O10      O      0.044170000000     0.048910000000     0.466470000000    -0.484194   
O11      O      0.974440000000     0.049970000000     0.529270000000    -0.48463    
O12      O      0.107740000000     0.046860000000     0.539570000000    -0.485913   
O13      O      0.105620000000     0.966480000000     0.538670000000    -0.483381   
O14      O      0.972730000000     0.969560000000     0.524950000000    -0.470546   
O15      O      0.043860000000     0.968320000000     0.464580000000    -0.4826     
O16      O      0.031610000000     0.963540000000     0.600570000000    -0.474883   
O17      O      0.949420000000     0.548530000000     0.121750000000    -0.48205    
O18      O      0.986290000000     0.548990000000     0.990160000000    -0.486597   
O19      O      0.903100000000     0.548830000000     0.036630000000    -0.485894   
O20      O      0.031390000000     0.548630000000     0.075500000000    -0.482771   
O21      O      0.030640000000     0.468150000000     0.077660000000    -0.479788   
O22      O      0.902620000000     0.468190000000     0.037860000000    -0.4853     
O23      O      0.987670000000     0.468600000000     0.991120000000    -0.483429   
O24      O      0.948730000000     0.468000000000     0.121870000000    -0.482935   
O25      O      0.000610000000     0.547680000000     0.603420000000    -0.482992   
O26      O      0.046340000000     0.551770000000     0.475100000000    -0.486069   
O27      O      0.961880000000     0.545420000000     0.515460000000    -0.478688   
O28      O      0.087810000000     0.545190000000     0.562390000000    -0.48506    
O29      O      0.089770000000     0.464790000000     0.559350000000    -0.47313    
O30      O      0.964250000000     0.464960000000     0.512030000000    -0.482605   
O31      O      0.047630000000     0.471180000000     0.473450000000    -0.483048   
O32      O      0.002220000000     0.467250000000     0.602010000000    -0.470282   
O33      O      0.468290000000     0.046670000000     0.082780000000    -0.483266   
O34      O      0.448510000000     0.052060000000     0.947750000000    -0.488449   
O35      O      0.391970000000     0.044080000000     0.026540000000    -0.486523   
O36      O      0.523760000000     0.050310000000     0.005650000000    -0.48833    
O37      O      0.525780000000     0.969960000000     0.001250000000    -0.47969    
O38      O      0.393980000000     0.963560000000     0.023770000000    -0.484625   
O39      O      0.448820000000     0.971580000000     0.944960000000    -0.48552    
O40      O      0.470940000000     0.966270000000     0.079370000000    -0.484587   
O41      O      0.557610000000     0.050250000000     0.594650000000    -0.485824   
O42      O      0.514150000000     0.046440000000     0.465730000000    -0.475568   
O43      O      0.473550000000     0.046200000000     0.551450000000    -0.468309   
O44      O      0.599730000000     0.048640000000     0.506420000000    -0.491295   
O45      O      0.602420000000     0.968400000000     0.509080000000    -0.488779   
O46      O      0.475630000000     0.965610000000     0.552410000000    -0.48389    
O47      O      0.515140000000     0.965790000000     0.467970000000    -0.485557   
O48      O      0.558270000000     0.969690000000     0.596980000000    -0.483933   
O49      O      0.456860000000     0.545250000000     0.067010000000    -0.490719   
O50      O      0.457240000000     0.547810000000     0.930700000000    -0.469764   
O51      O      0.391680000000     0.550340000000     0.996570000000    -0.481901   
O52      O      0.525490000000     0.550940000000     0.997660000000    -0.482592   
O53      O      0.524940000000     0.470450000000     0.998350000000    -0.48554    
O54      O      0.391340000000     0.469760000000     0.996170000000    -0.468459   
O55      O      0.456890000000     0.467160000000     0.930470000000    -0.48716    
O56      O      0.455330000000     0.464840000000     0.066510000000    -0.47753    
O57      O      0.550650000000     0.548240000000     0.573810000000    -0.479563   
O58      O      0.511500000000     0.548340000000     0.443540000000    -0.484432   
O59      O      0.464100000000     0.548110000000     0.527370000000    -0.488346   
O60      O      0.592860000000     0.545890000000     0.488760000000    -0.464215   
O61      O      0.591140000000     0.465410000000     0.492300000000    -0.479214   
O62      O      0.463360000000     0.467950000000     0.532540000000    -0.488135   
O63      O      0.508660000000     0.467800000000     0.445490000000    -0.487158   
O64      O      0.549610000000     0.467570000000     0.575080000000    -0.483465   


