data_structure

_audit_creation_method RASPA-1.0
_audit_creation_date 2023-5-25
_audit_author_name 'Poobodin Mano'

_cell_length_a    28.7038
_cell_length_b    27.3111
_cell_length_c    28.7352
_cell_angle_alpha 90
_cell_angle_beta  90.0007
_cell_angle_gamma 90.0045
_cell_volume      22526.5

_symmetry_cell_setting          triclinic
_symmetry_space_group_name_Hall 'P 1'
_symmetry_space_group_name_H-M  'P 1'
_symmetry_Int_Tables_number     1

_symmetry_equiv_pos_as_xyz 'x,y,z'

loop_
_atom_site_label
_atom_site_type_symbol
_atom_site_fract_x
_atom_site_fract_y
_atom_site_fract_z
_atom_site_charge
C1       C      0.970080000000     0.010980000000     0.097060000000     0.488005   
C2       C      0.016310000000     0.006480000000     0.926140000000     0.475034   
C3       C      0.908400000000     0.008820000000     0.993080000000     0.474386   
C4       C      0.079560000000     0.008000000000     0.038070000000     0.478011   
C5       C      0.980480000000     0.007810000000     0.592660000000     0.489983   
C6       C      0.023190000000     0.008810000000     0.420810000000     0.480071   
C7       C      0.914280000000     0.009220000000     0.482460000000     0.483398   
C8       C      0.086490000000     0.008100000000     0.523880000000     0.489408   
C9       C      0.976960000000     0.512190000000     0.104000000000     0.493974   
C10      C      0.010210000000     0.505210000000     0.930450000000     0.495979   
C11      C      0.902120000000     0.509080000000     0.999130000000     0.499597   
C12      C      0.075740000000     0.508280000000     0.034320000000     0.473443   
C13      C      0.966630000000     0.507090000000     0.602160000000     0.478806   
C14      C      0.004260000000     0.510790000000     0.429410000000     0.466846   
C15      C      0.903720000000     0.507960000000     0.496830000000     0.466945   
C16      C      0.076470000000     0.507750000000     0.536250000000     0.483708   
C17      C      0.479930000000     0.009150000000     0.105020000000     0.482066   
C18      C      0.505670000000     0.009730000000     0.930480000000     0.504678   
C19      C      0.410020000000     0.009770000000     0.001570000000     0.491171   
C20      C      0.585260000000     0.009450000000     0.025760000000     0.497423   
C21      C      0.489060000000     0.011430000000     0.608320000000     0.478078   
C22      C      0.520900000000     0.008130000000     0.434720000000     0.492691   
C23      C      0.414920000000     0.006020000000     0.509800000000     0.47278    
C24      C      0.589500000000     0.008810000000     0.539470000000     0.494035   
C25      C      0.509740000000     0.510450000000     0.096870000000     0.482017   
C26      C      0.467200000000     0.509670000000     0.925050000000     0.499059   
C27      C      0.402080000000     0.508810000000     0.032750000000     0.502425   
C28      C      0.574390000000     0.509130000000     0.992070000000     0.475715   
C29      C      0.513960000000     0.511670000000     0.597940000000     0.483976   
C30      C      0.468470000000     0.506570000000     0.426990000000     0.480113   
C31      C      0.403950000000     0.507680000000     0.534530000000     0.498677   
C32      C      0.575710000000     0.507260000000     0.491150000000     0.488852   
C33      C      0.535790000000     0.557940000000     0.669110000000     0.0168209  
C34      C      0.448890000000     0.463950000000     0.852660000000     0.038816   
C35      C      0.446440000000     0.554870000000     0.852970000000     0.347717   
C36      C      0.482300000000     0.462540000000     0.811230000000    -0.118454   
C37      C      0.503850000000     0.559630000000     0.711710000000    -0.0952024  
C38      C      0.479730000000     0.558450000000     0.811510000000    -0.198062   
C39      C      0.501010000000     0.511330000000     0.738780000000     0.00515932 
C40      C      0.485040000000     0.510710000000     0.784040000000     0.0703958  
C41      C      0.538640000000     0.467420000000     0.669260000000     0.0169761  
C42      C      0.506560000000     0.463450000000     0.711540000000    -0.0957565  
C43      C      0.445050000000     0.550800000000     0.355220000000     0.0162831  
C44      C      0.532710000000     0.465720000000     0.168560000000     0.0289226  
C45      C      0.528940000000     0.556540000000     0.168940000000     0.346107   
C46      C      0.501030000000     0.461360000000     0.211140000000    -0.113557   
C47      C      0.476680000000     0.555320000000     0.312630000000    -0.0954737  
C48      C      0.497390000000     0.557170000000     0.211950000000    -0.196698   
C49      C      0.481840000000     0.507760000000     0.284860000000     0.0063214  
C50      C      0.496200000000     0.508850000000     0.239030000000     0.0680588  
C51      C      0.449300000000     0.460230000000     0.355070000000     0.0176052  
C52      C      0.480670000000     0.459440000000     0.311970000000    -0.096877   
C53      C      0.529090000000     0.650250000000     0.489740000000    -0.00202308 
C54      C      0.463040000000     0.865640000000     0.542060000000     0.0213995  
C55      C      0.520770000000     0.865350000000     0.480990000000     0.330733   
C56      C      0.471090000000     0.811930000000     0.554840000000    -0.108876   
C57      C      0.522150000000     0.704600000000     0.478690000000    -0.0849524  
C58      C      0.532900000000     0.811300000000     0.487940000000    -0.190558   
C59      C      0.496350000000     0.733000000000     0.516660000000     0.000980725
C60      C      0.497570000000     0.783350000000     0.517530000000     0.0665455  
C61      C      0.475370000000     0.651130000000     0.553690000000    -0.00251211 
C62      C      0.462080000000     0.704860000000     0.547300000000    -0.0847005  
C63      C      0.517630000000     0.152910000000     0.559150000000    -0.000504345
C64      C      0.468300000000     0.363650000000     0.478130000000     0.0229778  
C65      C      0.532560000000     0.365790000000     0.532420000000     0.33345    
C66      C      0.456530000000     0.310140000000     0.489040000000    -0.107762   
C67      C      0.530060000000     0.206410000000     0.549680000000    -0.0852762  
C68      C      0.524420000000     0.313680000000     0.549930000000    -0.190262   
C69      C      0.494090000000     0.233060000000     0.519680000000     0.00179783 
C70      C      0.493900000000     0.283360000000     0.517260000000     0.068509   
C71      C      0.459210000000     0.149140000000     0.499570000000    -0.000173403
C72      C      0.464890000000     0.202890000000     0.485640000000    -0.0858534  
C73      C      0.515710000000     0.867130000000     0.977680000000    -0.00196432 
C74      C      0.470890000000     0.652860000000     0.052150000000     0.0217337  
C75      C      0.527920000000     0.652340000000     0.990430000000     0.332788   
C76      C      0.456980000000     0.706240000000     0.043990000000    -0.108448   
C77      C      0.527660000000     0.813070000000     0.984890000000    -0.08366    
C78      C      0.519890000000     0.706130000000     0.977890000000    -0.190679   
C79      C      0.491730000000     0.784950000000     0.013750000000     0.00213558 
C80      C      0.491900000000     0.734580000000     0.014180000000     0.067753   
C81      C      0.454960000000     0.867130000000     0.034980000000    -0.00167942 
C82      C      0.462260000000     0.813590000000     0.048710000000    -0.0846898  
C83      C      0.456080000000     0.152040000000     0.036870000000    -0.00222091 
C84      C      0.526490000000     0.366700000000     0.987530000000     0.0258041  
C85      C      0.474330000000     0.365890000000     0.053510000000     0.335743   
C86      C      0.517470000000     0.312880000000     0.975660000000    -0.109633   
C87      C      0.463940000000     0.205640000000     0.050030000000    -0.0834194  
C88      C      0.458920000000     0.312950000000     0.045610000000    -0.192191   
C89      C      0.491730000000     0.234130000000     0.013610000000     0.00178283 
C90      C      0.491850000000     0.284480000000     0.013770000000     0.0711626  
C91      C      0.514510000000     0.151700000000     0.977220000000    -0.00658476 
C92      C      0.526390000000     0.205920000000     0.983360000000    -0.081454   
C93      C      0.485680000000     0.059260000000     0.680730000000     0.0149754  
C94      C      0.504810000000     0.963350000000     0.857090000000     0.0373411  
C95      C      0.505570000000     0.057990000000     0.858240000000     0.347219   
C96      C      0.528310000000     0.965690000000     0.809400000000    -0.12443    
C97      C      0.461010000000     0.057750000000     0.727890000000    -0.102626   
C98      C      0.528890000000     0.056480000000     0.810380000000    -0.198045   
C99      C      0.476530000000     0.012140000000     0.753060000000     0.0332853  
C100     C      0.511890000000     0.011510000000     0.785130000000     0.0716779  
C101     C      0.484480000000     0.964490000000     0.681120000000     0.0156837  
C102     C      0.459510000000     0.967100000000     0.728020000000    -0.105269   
C103     C      0.458530000000     0.963350000000     0.176440000000     0.017941   
C104     C      0.542080000000     0.053110000000     0.362840000000     0.0389489  
C105     C      0.541350000000     0.962150000000     0.363060000000     0.34497    
C106     C      0.510350000000     0.055970000000     0.320300000000    -0.118315   
C107     C      0.489620000000     0.960390000000     0.219520000000    -0.0959581  
C108     C      0.509950000000     0.959970000000     0.320090000000    -0.195933   
C109     C      0.492830000000     0.008310000000     0.247040000000     0.0056432  
C110     C      0.507150000000     0.008080000000     0.292800000000     0.0698492  
C111     C      0.458550000000     0.054030000000     0.176950000000     0.017383   
C112     C      0.489770000000     0.056490000000     0.219920000000    -0.0962879  
C113     C      0.832680000000     0.461780000000     0.474800000000     0.0134528  
C114     C      0.648310000000     0.554470000000     0.481240000000     0.0361294  
C115     C      0.648000000000     0.460250000000     0.478550000000     0.340087   
C116     C      0.690310000000     0.553650000000     0.448420000000    -0.124944   
C117     C      0.784510000000     0.460890000000     0.497700000000    -0.0989709  
C118     C      0.690270000000     0.462960000000     0.446060000000    -0.193591   
C119     C      0.758220000000     0.507200000000     0.484820000000     0.0254664  
C120     C      0.718370000000     0.507980000000     0.458260000000     0.0699846  
C121     C      0.831960000000     0.554550000000     0.478180000000     0.00875762 
C122     C      0.783830000000     0.552720000000     0.501110000000    -0.0999603  
C123     C      0.148380000000     0.461160000000     0.554250000000     0.0140479  
C124     C      0.331680000000     0.554740000000     0.547240000000     0.0364008  
C125     C      0.331470000000     0.460550000000     0.545850000000     0.344396   
C126     C      0.290980000000     0.552670000000     0.581600000000    -0.124841   
C127     C      0.195770000000     0.462780000000     0.529860000000    -0.0987512  
C128     C      0.290510000000     0.461910000000     0.580030000000    -0.196227   
C129     C      0.221870000000     0.508380000000     0.545180000000     0.0260185  
C130     C      0.262300000000     0.507650000000     0.570820000000     0.0704321  
C131     C      0.147840000000     0.553930000000     0.557180000000     0.0151476  
C132     C      0.195300000000     0.554680000000     0.532850000000    -0.10296    
C133     C      0.647450000000     0.462530000000     0.982960000000     0.0134543  
C134     C      0.830760000000     0.555810000000     0.979630000000     0.0382228  
C135     C      0.829940000000     0.462720000000     0.981960000000     0.345342   
C136     C      0.782760000000     0.556360000000     0.002880000000    -0.126198   
C137     C      0.689750000000     0.464310000000     0.950570000000    -0.0988454  
C138     C      0.781920000000     0.464620000000     0.005160000000    -0.197907   
C139     C      0.717380000000     0.509940000000     0.961660000000     0.0220923  
C140     C      0.756450000000     0.510350000000     0.989320000000     0.0761648  
C141     C      0.646770000000     0.556730000000     0.982110000000     0.00891578 
C142     C      0.689250000000     0.555060000000     0.949920000000    -0.0986716  
C143     C      0.146740000000     0.461930000000     0.056020000000     0.00877407 
C144     C      0.329270000000     0.555130000000     0.044820000000     0.0347416  
C145     C      0.330640000000     0.460830000000     0.046690000000     0.344467   
C146     C      0.288860000000     0.553440000000     0.079500000000    -0.122755   
C147     C      0.194380000000     0.460190000000     0.032130000000    -0.0979599  
C148     C      0.289910000000     0.462750000000     0.081110000000    -0.195137   
C149     C      0.221120000000     0.506530000000     0.043830000000     0.0314094  
C150     C      0.260970000000     0.507550000000     0.070280000000     0.0689825  
C151     C      0.148060000000     0.554610000000     0.051160000000     0.0100272  
C152     C      0.195610000000     0.551950000000     0.027240000000    -0.102258   
C153     C      0.944060000000     0.460140000000     0.672730000000     0.0164257  
C154     C      0.032200000000     0.548660000000     0.857890000000     0.0409183  
C155     C      0.029130000000     0.457780000000     0.859060000000     0.349487   
C156     C      0.999140000000     0.552120000000     0.816380000000    -0.120986   
C157     C      0.975320000000     0.456930000000     0.715800000000    -0.0956576  
C158     C      0.997050000000     0.456190000000     0.816400000000    -0.20055    
C159     C      0.979160000000     0.504730000000     0.743510000000     0.00611877 
C160     C      0.994480000000     0.504280000000     0.789010000000     0.0724011  
C161     C      0.943380000000     0.550730000000     0.674300000000     0.016691   
C162     C      0.975440000000     0.553070000000     0.716700000000    -0.0958599  
C163     C      0.004250000000     0.560130000000     0.357800000000     0.0135945  
C164     C      0.977840000000     0.466850000000     0.177970000000     0.0351108  
C165     C      0.979630000000     0.561250000000     0.175850000000     0.344466   
C166     C      0.956190000000     0.470270000000     0.226490000000    -0.124842   
C167     C      0.025870000000     0.560000000000     0.309080000000    -0.100643   
C168     C      0.958550000000     0.561060000000     0.224900000000    -0.196449   
C169     C      0.009090000000     0.515120000000     0.283410000000     0.0277818  
C170     C      0.974650000000     0.515610000000     0.250200000000     0.070157   
C171     C      0.005120000000     0.465650000000     0.355310000000     0.00889148 
C172     C      0.026830000000     0.469270000000     0.306790000000    -0.100605   
C173     C      0.966500000000     0.867370000000     0.539520000000    -0.00259533 
C174     C      0.023540000000     0.650030000000     0.485890000000     0.0207043  
C175     C      0.947680000000     0.653190000000     0.521970000000     0.332238   
C176     C      0.035860000000     0.702850000000     0.498330000000    -0.107456   
C177     C      0.954230000000     0.814240000000     0.528230000000    -0.0843159  
C178     C      0.953010000000     0.706940000000     0.536510000000    -0.189616   
C179     C      0.996210000000     0.783710000000     0.513140000000     0.000923425
C180     C      0.993750000000     0.733380000000     0.513010000000     0.0643796  
C181     C      0.041700000000     0.864120000000     0.503220000000     0.00100939 
C182     C      0.037020000000     0.810070000000     0.489670000000    -0.0857552  
C183     C      0.042150000000     0.152880000000     0.500470000000    -0.0015979  
C184     C      0.948650000000     0.363620000000     0.523510000000     0.025248   
C185     C      0.020040000000     0.366470000000     0.479090000000     0.334353   
C186     C      0.955770000000     0.310200000000     0.538260000000    -0.109033   
C187     C      0.035930000000     0.206540000000     0.486150000000    -0.083408   
C188     C      0.034000000000     0.313920000000     0.491060000000    -0.190835   
C189     C      0.997140000000     0.233220000000     0.512540000000     0.000198963
C190     C      0.994100000000     0.283500000000     0.511220000000     0.0668071  
C191     C      0.970310000000     0.149840000000     0.543080000000    -0.000387309
C192     C      0.957050000000     0.202860000000     0.532400000000    -0.0850995  
C193     C      0.842300000000     0.964580000000     0.460250000000     0.0181021  
C194     C      0.661990000000     0.054870000000     0.556950000000     0.0409364  
C195     C      0.662530000000     0.963940000000     0.557500000000     0.349831   
C196     C      0.702430000000     0.057490000000     0.522380000000    -0.119644   
C197     C      0.801210000000     0.961500000000     0.493950000000    -0.0959692  
C198     C      0.702730000000     0.961460000000     0.522630000000    -0.199962   
C199     C      0.774320000000     0.009640000000     0.499590000000     0.00891527 
C200     C      0.729710000000     0.009550000000     0.517380000000     0.0749107  
C201     C      0.842710000000     0.055120000000     0.461130000000     0.0170843  
C202     C      0.801340000000     0.057790000000     0.494590000000    -0.0958072  
C203     C      0.341540000000     0.052760000000     0.510960000000     0.0145116  
C204     C      0.158940000000     0.960010000000     0.526960000000     0.035471   
C205     C      0.160030000000     0.054420000000     0.527050000000     0.343505   
C206     C      0.206240000000     0.961050000000     0.551590000000    -0.123178   
C207     C      0.293650000000     0.050810000000     0.487620000000    -0.100809   
C208     C      0.207390000000     0.051850000000     0.551580000000    -0.19508    
C209     C      0.268320000000     0.005560000000     0.504210000000     0.0254894  
C210     C      0.232530000000     0.006070000000     0.536020000000     0.0676882  
C211     C      0.341850000000     0.958600000000     0.511600000000     0.0141271  
C212     C      0.293660000000     0.959860000000     0.488670000000    -0.102445   
C213     C      0.021810000000     0.865200000000     0.979480000000    -0.000322156
C214     C      0.960610000000     0.652580000000     0.046190000000     0.0199089  
C215     C      0.033680000000     0.651560000000     0.004590000000     0.331514   
C216     C      0.949500000000     0.705540000000     0.032850000000    -0.10695    
C217     C      0.032470000000     0.811780000000     0.991330000000    -0.0842492  
C218     C      0.028780000000     0.704400000000     0.987550000000    -0.188531   
C219     C      0.990780000000     0.783870000000     0.011230000000     0.00111811 
C220     C      0.991290000000     0.733550000000     0.013300000000     0.0664162  
C221     C      0.949450000000     0.866360000000     0.021270000000    -0.00091494 
C222     C      0.953200000000     0.812960000000     0.036920000000    -0.0855185  
C223     C      0.006700000000     0.151030000000     0.053980000000    -0.00172497 
C224     C      0.973330000000     0.365770000000     0.976300000000     0.0169418  
C225     C      0.024680000000     0.365080000000     0.042820000000     0.331409   
C226     C      0.958510000000     0.312390000000     0.982680000000    -0.105528   
C227     C      0.021030000000     0.204610000000     0.048860000000    -0.0844808  
C228     C      0.013820000000     0.311760000000     0.055080000000    -0.18831    
C229     C      0.990190000000     0.233250000000     0.015130000000     0.0018008  
C230     C      0.990150000000     0.283630000000     0.015610000000     0.0664679  
C231     C      0.958330000000     0.151000000000     0.985940000000    -0.000158855
C232     C      0.967080000000     0.205170000000     0.975260000000    -0.0860633  
C233     C      0.836020000000     0.056590000000     0.989410000000     0.0155559  
C234     C      0.658060000000     0.962270000000     0.019990000000     0.0360854  
C235     C      0.658080000000     0.056730000000     0.020730000000     0.343931   
C236     C      0.707770000000     0.963820000000     0.039180000000    -0.124708   
C237     C      0.787360000000     0.054850000000     0.967710000000    -0.102201   
C238     C      0.707910000000     0.054680000000     0.039720000000    -0.196687   
C239     C      0.762900000000     0.009500000000     0.985020000000     0.0292448  
C240     C      0.731470000000     0.009320000000     0.021060000000     0.0714356  
C241     C      0.835640000000     0.961730000000     0.988690000000     0.0158291  
C242     C      0.787020000000     0.964260000000     0.966990000000    -0.104147   
C243     C      0.150030000000     0.962380000000     0.063210000000     0.0165375  
C244     C      0.337360000000     0.055360000000     0.983850000000     0.0396195  
C245     C      0.337660000000     0.964330000000     0.982200000000     0.34854    
C246     C      0.295090000000     0.056990000000     0.016180000000    -0.11968    
C247     C      0.194380000000     0.960280000000     0.033770000000    -0.0948241  
C248     C      0.295380000000     0.961250000000     0.014490000000    -0.198559   
C249     C      0.221560000000     0.008540000000     0.031750000000     0.00457447 
C250     C      0.267600000000     0.008970000000     0.018020000000     0.0703024  
C251     C      0.149830000000     0.052960000000     0.064780000000     0.016903   
C252     C      0.194070000000     0.056490000000     0.035330000000    -0.0962318  
C253     C      0.036530000000     0.960100000000     0.854490000000     0.0159592  
C254     C      0.961350000000     0.052990000000     0.665190000000     0.0387738  
C255     C      0.960140000000     0.961960000000     0.664570000000     0.346461   
C256     C      0.991960000000     0.054670000000     0.708770000000    -0.119425   
C257     C      0.006560000000     0.958360000000     0.810380000000    -0.0940244  
C258     C      0.990410000000     0.959010000000     0.708450000000    -0.197209   
C259     C      0.005580000000     0.006340000000     0.782750000000     0.00498671 
C260     C      0.993020000000     0.006710000000     0.736330000000     0.0691837  
C261     C      0.038970000000     0.050810000000     0.854130000000     0.0149269  
C262     C      0.008670000000     0.054140000000     0.810430000000    -0.094622   
C263     C      0.044300000000     0.963920000000     0.348680000000     0.0174205  
C264     C      0.949860000000     0.057340000000     0.168600000000     0.0395305  
C265     C      0.947160000000     0.966540000000     0.168860000000     0.347551   
C266     C      0.983790000000     0.059050000000     0.209630000000    -0.118656   
C267     C      0.010200000000     0.961880000000     0.307850000000    -0.0945634  
C268     C      0.981290000000     0.962890000000     0.209610000000    -0.197841   
C269     C      0.005600000000     0.010250000000     0.281160000000     0.00499357 
C270     C      0.987740000000     0.010800000000     0.236620000000     0.0693468  
C271     C      0.045460000000     0.054450000000     0.349420000000     0.0167762  
C272     C      0.011730000000     0.058130000000     0.308350000000    -0.0950035  
Cu1      Cu     0.995510000000     0.060330000000     0.011410000000     1.19791    
Cu2      Cu     0.994520000000     0.956820000000     0.012910000000     1.20108    
Cu3      Cu     0.999800000000     0.060240000000     0.506320000000     1.20131    
Cu4      Cu     0.999130000000     0.956690000000     0.505640000000     1.20287    
Cu5      Cu     0.989420000000     0.560350000000     0.014760000000     1.23033    
Cu6      Cu     0.988340000000     0.456920000000     0.017800000000     1.22829    
Cu7      Cu     0.990020000000     0.560130000000     0.518050000000     1.22317    
Cu8      Cu     0.990410000000     0.456690000000     0.515840000000     1.21859    
Cu9      Cu     0.497130000000     0.061280000000     0.018810000000     1.2138     
Cu10     Cu     0.497060000000     0.957770000000     0.018210000000     1.21107    
Cu11     Cu     0.502570000000     0.060290000000     0.520460000000     1.20564    
Cu12     Cu     0.503310000000     0.956630000000     0.521820000000     1.23676    
Cu13     Cu     0.487420000000     0.561330000000     0.010780000000     1.23375    
Cu14     Cu     0.488070000000     0.457740000000     0.011140000000     1.23178    
Cu15     Cu     0.489380000000     0.560120000000     0.512070000000     1.20156    
Cu16     Cu     0.490030000000     0.456580000000     0.513790000000     1.23267    
F1       F      0.400950000000     0.554870000000     0.836770000000    -0.442358   
F2       F      0.575000000000     0.560120000000     0.183040000000    -0.441276   
F3       F      0.486290000000     0.870230000000     0.447460000000    -0.455012   
F4       F      0.563580000000     0.365350000000     0.495430000000    -0.443965   
F5       F      0.563720000000     0.648210000000     0.022630000000    -0.451432   
F6       F      0.512360000000     0.367140000000     0.083240000000    -0.458295   
F7       F      0.459140000000     0.070670000000     0.853010000000    -0.442953   
F8       F      0.587530000000     0.960260000000     0.349060000000    -0.445537   
F9       F      0.662710000000     0.447530000000     0.522830000000    -0.435623   
F10      F      0.314900000000     0.450670000000     0.501570000000    -0.44873    
F11      F      0.824400000000     0.454670000000     0.934690000000    -0.44947    
F12      F      0.313980000000     0.448650000000     0.002970000000    -0.438647   
F13      F      0.075030000000     0.454200000000     0.844460000000    -0.44041    
F14      F      0.026570000000     0.572580000000     0.178840000000    -0.436813   
F15      F      0.926380000000     0.650060000000     0.478740000000    -0.4569     
F16      F      0.994400000000     0.367330000000     0.438180000000    -0.458243   
F17      F      0.680470000000     0.963250000000     0.602290000000    -0.444741   
F18      F      0.166810000000     0.066510000000     0.480730000000    -0.449828   
F19      F      0.057740000000     0.650380000000     0.046450000000    -0.446585   
F20      F      0.063030000000     0.367320000000     0.013530000000    -0.45077    
F21      F      0.659420000000     0.069210000000     0.974020000000    -0.448063   
F22      F      0.322550000000     0.963590000000     0.936380000000    -0.443304   
F23      F      0.913600000000     0.960570000000     0.677370000000    -0.446103   
F24      F      0.902020000000     0.967260000000     0.186020000000    -0.447863   
H1       H      0.517740000000     0.589600000000     0.733820000000     0.0452544  
H2       H      0.412590000000     0.462350000000     0.839150000000     0.0653775  
H3       H      0.575290000000     0.468920000000     0.681850000000     0.0361392  
H4       H      0.521910000000     0.434220000000     0.733560000000     0.0454252  
H5       H      0.469750000000     0.432040000000     0.788990000000     0.0540032  
H6       H      0.465850000000     0.588440000000     0.789440000000     0.0957214  
H7       H      0.529740000000     0.591110000000     0.647550000000     0.0364177  
H8       H      0.454390000000     0.430680000000     0.874250000000     0.040481   
H9       H      0.471530000000     0.451300000000     0.699750000000     0.0562328  
H10      H      0.514710000000     0.569550000000     0.824350000000     0.0716259  
H11      H      0.535080000000     0.433810000000     0.647730000000     0.0428924  
H12      H      0.468140000000     0.569760000000     0.700240000000     0.0580946  
H13      H      0.517800000000     0.453290000000     0.823960000000     0.0555747  
H14      H      0.450950000000     0.588130000000     0.874800000000    -0.00683764 
H15      H      0.572560000000     0.559210000000     0.681360000000     0.0320134  
H16      H      0.461030000000     0.584850000000     0.291210000000     0.0464345  
H17      H      0.569490000000     0.466820000000     0.180770000000     0.0659414  
H18      H      0.412400000000     0.458010000000     0.343340000000     0.0343768  
H19      H      0.467230000000     0.429030000000     0.290140000000     0.046873   
H20      H      0.516400000000     0.431610000000     0.232490000000     0.0568359  
H21      H      0.510410000000     0.587720000000     0.233840000000     0.0972921  
H22      H      0.448530000000     0.584400000000     0.376780000000     0.0410059  
H23      H      0.528840000000     0.432300000000     0.146940000000     0.0737376  
H24      H      0.516800000000     0.450350000000     0.322890000000     0.059561   
H25      H      0.461260000000     0.566030000000     0.200850000000     0.070439   
H26      H      0.456460000000     0.427120000000     0.376400000000     0.0415414  
H27      H      0.511850000000     0.567330000000     0.324120000000     0.0602447  
H28      H      0.465780000000     0.449690000000     0.199590000000     0.0597993  
H29      H      0.520980000000     0.589510000000     0.147700000000    -0.00268298 
H30      H      0.408300000000     0.549000000000     0.342980000000     0.0326782  
H31      H      0.557580000000     0.719780000000     0.472910000000     0.0448826  
H32      H      0.434740000000     0.868610000000     0.515760000000     0.0563625  
H33      H      0.505410000000     0.648060000000     0.578040000000     0.0322959  
H34      H      0.460290000000     0.720820000000     0.582810000000     0.0413124  
H35      H      0.436030000000     0.796000000000     0.561010000000     0.0486864  
H36      H      0.535930000000     0.795330000000     0.452540000000     0.0963633  
H37      H      0.538270000000     0.630940000000     0.456990000000     0.0321991  
H38      H      0.451350000000     0.885600000000     0.573600000000     0.0252662  
H39      H      0.426910000000     0.706980000000     0.531230000000     0.0512787  
H40      H      0.567480000000     0.808690000000     0.505200000000     0.0742347  
H41      H      0.445520000000     0.631470000000     0.569610000000     0.0316905  
H42      H      0.502060000000     0.707940000000     0.445760000000     0.0559686  
H43      H      0.491220000000     0.810130000000     0.587850000000     0.0542601  
H44      H      0.552530000000     0.884330000000     0.468310000000    -0.0125806  
H45      H      0.558570000000     0.645420000000     0.514510000000     0.0313902  
H46      H      0.533660000000     0.224280000000     0.584230000000     0.0439667  
H47      H      0.492540000000     0.365910000000     0.447980000000     0.0575853  
H48      H      0.431830000000     0.145390000000     0.526810000000     0.0294051  
H49      H      0.429100000000     0.218000000000     0.482530000000     0.0428076  
H50      H      0.450650000000     0.292090000000     0.454920000000     0.0522901  
H51      H      0.559410000000     0.296970000000     0.554380000000     0.0963499  
H52      H      0.548750000000     0.134040000000     0.573430000000     0.0336757  
H53      H      0.435660000000     0.382730000000     0.468060000000     0.0372258  
H54      H      0.481810000000     0.204560000000     0.450860000000     0.0525954  
H55      H      0.507230000000     0.315300000000     0.584570000000     0.0707122  
H56      H      0.447550000000     0.128230000000     0.468540000000     0.029917   
H57      H      0.564310000000     0.207850000000     0.531650000000     0.0571206  
H58      H      0.423400000000     0.308970000000     0.509060000000     0.0576371  
H59      H      0.548280000000     0.387590000000     0.560970000000    -0.00937414 
H60      H      0.489530000000     0.150570000000     0.585790000000     0.0311243  
H61      H      0.531200000000     0.797070000000     0.949540000000     0.0435023  
H62      H      0.499200000000     0.650630000000     0.078500000000     0.0634428  
H63      H      0.428910000000     0.869820000000     0.006370000000     0.0370518  
H64      H      0.426990000000     0.797260000000     0.052270000000     0.0426518  
H65      H      0.453250000000     0.723090000000     0.078980000000     0.0508583  
H66      H      0.554970000000     0.722420000000     0.972730000000     0.0931776  
H67      H      0.547630000000     0.886590000000     0.966060000000     0.0335563  
H68      H      0.440430000000     0.632860000000     0.066450000000     0.0262815  
H69      H      0.479820000000     0.812230000000     0.083180000000     0.0530093  
H70      H      0.500810000000     0.707930000000     0.944260000000     0.0723713  
H71      H      0.440760000000     0.887300000000     0.065350000000     0.0306196  
H72      H      0.561930000000     0.810500000000     0.002780000000     0.0554825  
H73      H      0.422500000000     0.707190000000     0.026380000000     0.0556444  
H74      H      0.538540000000     0.632730000000     0.958290000000    -0.0230099  
H75      H      0.489040000000     0.871130000000     0.949790000000     0.0357429  
H76      H      0.428850000000     0.221950000000     0.055080000000     0.0438758  
H77      H      0.557340000000     0.370080000000     0.010770000000     0.0574526  
H78      H      0.486850000000     0.147180000000     0.950370000000     0.049453   
H79      H      0.528120000000     0.221570000000     0.947730000000     0.0472857  
H80      H      0.552170000000     0.296630000000     0.968390000000     0.0527393  
H81      H      0.456500000000     0.295770000000     0.080560000000     0.0921759  
H82      H      0.443040000000     0.132060000000     0.067870000000     0.030633   
H83      H      0.534700000000     0.386500000000     0.954780000000     0.0257021  
H84      H      0.561460000000     0.208950000000     0.999550000000     0.0583389  
H85      H      0.423620000000     0.312930000000     0.029700000000     0.078322   
H86      H      0.546130000000     0.132390000000     0.964620000000     0.0513862  
H87      H      0.483060000000     0.207180000000     0.083660000000     0.0549694  
H88      H      0.496290000000     0.311020000000     0.943310000000     0.0570589  
H89      H      0.445340000000     0.386180000000     0.070270000000    -0.0191714  
H90      H      0.428940000000     0.149210000000     0.009300000000     0.0363055  
H91      H      0.466320000000     0.092310000000     0.747140000000     0.0670618  
H92      H      0.467320000000     0.954400000000     0.852260000000     0.0496343  
H93      H      0.521470000000     0.954050000000     0.687050000000     0.038935   
H94      H      0.463430000000     0.932490000000     0.747540000000     0.051179   
H95      H      0.522770000000     0.931340000000     0.789850000000     0.0539908  
H96      H      0.523820000000     0.091400000000     0.791660000000     0.0909146  
H97      H      0.470030000000     0.089350000000     0.659850000000     0.0367791  
H98      H      0.520690000000     0.932610000000     0.876930000000     0.0333597  
H99      H      0.421420000000     0.970340000000     0.721600000000     0.0605992  
H100     H      0.567240000000     0.053760000000     0.815430000000     0.0786775  
H101     H      0.468240000000     0.934600000000     0.660410000000     0.0375434  
H102     H      0.422770000000     0.055970000000     0.721770000000     0.0646256  
H103     H      0.566660000000     0.967710000000     0.814630000000     0.062415   
H104     H      0.522710000000     0.087550000000     0.878650000000    -0.00803591 
H105     H      0.522940000000     0.068820000000     0.686330000000     0.0350437  
H106     H      0.474650000000     0.930460000000     0.240950000000     0.0481466  
H107     H      0.578890000000     0.053250000000     0.350700000000     0.057556   
H108     H      0.421580000000     0.054040000000     0.188660000000     0.0266926  
H109     H      0.474980000000     0.086300000000     0.241620000000     0.0444455  
H110     H      0.524790000000     0.086100000000     0.298770000000     0.0531929  
H111     H      0.524070000000     0.929800000000     0.298410000000     0.101057   
H112     H      0.464040000000     0.930060000000     0.154870000000     0.0372718  
H113     H      0.537030000000     0.086580000000     0.384270000000     0.0361184  
H114     H      0.525490000000     0.067220000000     0.209010000000     0.0574858  
H115     H      0.474140000000     0.949800000000     0.331200000000     0.0824136  
H116     H      0.463940000000     0.087580000000     0.155720000000     0.0367361  
H117     H      0.525330000000     0.949590000000     0.208630000000     0.0620852  
H118     H      0.474720000000     0.066440000000     0.331730000000     0.0559828  
H119     H      0.534540000000     0.929100000000     0.384540000000     0.0169042  
H120     H      0.421530000000     0.963140000000     0.188040000000     0.0272847  
H121     H      0.767090000000     0.426140000000     0.488950000000     0.0646907  
H122     H      0.660720000000     0.561780000000     0.517240000000     0.0426616  
H123     H      0.827340000000     0.560600000000     0.440180000000     0.0431683  
H124     H      0.765790000000     0.587780000000     0.495170000000     0.051066   
H125     H      0.709710000000     0.588460000000     0.450340000000     0.0542527  
H126     H      0.709540000000     0.428030000000     0.446230000000     0.0932393  
H127     H      0.852320000000     0.428950000000     0.486540000000     0.0421044  
H128     H      0.625650000000     0.585710000000     0.471020000000     0.0314573  
H129     H      0.788580000000     0.550390000000     0.539460000000     0.0609386  
H130     H      0.677410000000     0.466430000000     0.409670000000     0.0743973  
H131     H      0.851060000000     0.586640000000     0.492340000000     0.0678962  
H132     H      0.789160000000     0.460040000000     0.536120000000     0.0681568  
H133     H      0.677240000000     0.552290000000     0.411990000000     0.05975    
H134     H      0.625140000000     0.430380000000     0.465590000000     0.0246589  
H135     H      0.828170000000     0.458750000000     0.436460000000     0.0356523  
H136     H      0.213970000000     0.427730000000     0.535390000000     0.0643485  
H137     H      0.317890000000     0.563380000000     0.512010000000     0.0428862  
H138     H      0.153510000000     0.556960000000     0.595360000000     0.0317119  
H139     H      0.212990000000     0.589450000000     0.540940000000     0.0465446  
H140     H      0.271830000000     0.587660000000     0.581830000000     0.0515832  
H141     H      0.270870000000     0.427190000000     0.579230000000     0.08884    
H142     H      0.128790000000     0.428910000000     0.541060000000     0.0400396  
H143     H      0.354790000000     0.585550000000     0.557640000000     0.032288   
H144     H      0.189510000000     0.555340000000     0.494590000000     0.059007   
H145     H      0.304800000000     0.463600000000     0.615990000000     0.0733026  
H146     H      0.127870000000     0.586760000000     0.546000000000     0.0368063  
H147     H      0.189850000000     0.464930000000     0.491660000000     0.0684121  
H148     H      0.305400000000     0.549500000000     0.617410000000     0.0593286  
H149     H      0.354460000000     0.429630000000     0.556220000000    -0.00964385 
H150     H      0.154190000000     0.455570000000     0.592150000000     0.0333819  
H151     H      0.709440000000     0.429640000000     0.951940000000     0.0607306  
H152     H      0.826010000000     0.559790000000     0.941400000000     0.0467298  
H153     H      0.658600000000     0.565540000000     0.018000000000     0.0545678  
H154     H      0.708380000000     0.590060000000     0.951130000000     0.0505083  
H155     H      0.765230000000     0.591270000000     0.994930000000     0.0557768  
H156     H      0.763510000000     0.429710000000     0.999410000000     0.0901615  
H157     H      0.625100000000     0.431310000000     0.972020000000     0.0392094  
H158     H      0.850580000000     0.588300000000     0.991940000000     0.0331307  
H159     H      0.676750000000     0.552340000000     0.913360000000     0.0559614  
H160     H      0.786960000000     0.466750000000     0.043490000000     0.0731587  
H161     H      0.624000000000     0.587290000000     0.970450000000     0.064205   
H162     H      0.677020000000     0.466410000000     0.914050000000     0.0593991  
H163     H      0.787690000000     0.556450000000     0.041270000000     0.0606024  
H164     H      0.849020000000     0.430840000000     0.996620000000    -0.0103838  
H165     H      0.659560000000     0.454710000000     0.018970000000     0.040094   
H166     H      0.211700000000     0.425480000000     0.041190000000     0.069913   
H167     H      0.315130000000     0.562410000000     0.009460000000     0.0511803  
H168     H      0.153500000000     0.561230000000     0.088970000000     0.0524937  
H169     H      0.214200000000     0.586920000000     0.032000000000     0.0545413  
H170     H      0.268790000000     0.587920000000     0.079000000000     0.0538478  
H171     H      0.270950000000     0.427630000000     0.081530000000     0.0896989  
H172     H      0.126650000000     0.429050000000     0.045380000000     0.0777045  
H173     H      0.351980000000     0.586620000000     0.054160000000     0.0339852  
H174     H      0.189970000000     0.548850000000     0.989050000000     0.07101    
H175     H      0.304350000000     0.466120000000     0.116900000000     0.0697419  
H176     H      0.128930000000     0.586610000000     0.036880000000     0.0758869  
H177     H      0.188960000000     0.458700000000     0.993830000000     0.0855765  
H178     H      0.303600000000     0.551780000000     0.115280000000     0.055427   
H179     H      0.354290000000     0.430890000000     0.058110000000    -0.00898486 
H180     H      0.152060000000     0.459660000000     0.094300000000     0.0403553  
H181     H      0.960310000000     0.427110000000     0.737330000000     0.0479866  
H182     H      0.068550000000     0.547420000000     0.844490000000     0.0594088  
H183     H      0.906670000000     0.550010000000     0.686780000000     0.0310323  
H184     H      0.961030000000     0.582680000000     0.738900000000     0.0449647  
H185     H      0.013260000000     0.582060000000     0.794400000000     0.053202   
H186     H      0.010290000000     0.425750000000     0.794510000000     0.09934    
H187     H      0.949720000000     0.427190000000     0.650730000000     0.038192   
H188     H      0.028930000000     0.582470000000     0.879170000000     0.0353712  
H189     H      0.010920000000     0.563970000000     0.705130000000     0.0561791  
H190     H      0.961250000000     0.446650000000     0.828050000000     0.0797682  
H191     H      0.947860000000     0.584600000000     0.653320000000     0.0382964  
H192     H      0.010900000000     0.445860000000     0.704730000000     0.0605214  
H193     H      0.964030000000     0.563090000000     0.828970000000     0.0599386  
H194     H      0.021610000000     0.425200000000     0.880960000000    -0.00285476 
H195     H      0.907100000000     0.459470000000     0.684450000000     0.0315616  
H196     H      0.019130000000     0.595230000000     0.291560000000     0.0646349  
H197     H      0.015250000000     0.456900000000     0.181530000000     0.0438893  
H198     H      0.967780000000     0.455460000000     0.351690000000     0.047527   
H199     H      0.021290000000     0.435060000000     0.287050000000     0.0523317  
H200     H      0.961300000000     0.435790000000     0.245920000000     0.0538629  
H201     H      0.965990000000     0.596030000000     0.242640000000     0.0928324  
H202     H      0.021170000000     0.589740000000     0.378340000000     0.0420321  
H203     H      0.960500000000     0.436350000000     0.159020000000     0.0328911  
H204     H      0.065310000000     0.471910000000     0.310750000000     0.0598554  
H205     H      0.919940000000     0.560060000000     0.221660000000     0.071974   
H206     H      0.022640000000     0.435280000000     0.374250000000     0.0692337  
H207     H      0.064420000000     0.558240000000     0.312700000000     0.0636256  
H208     H      0.917760000000     0.473560000000     0.222590000000     0.0573358  
H209     H      0.962430000000     0.591030000000     0.155790000000    -0.00846437 
H210     H      0.966710000000     0.569730000000     0.354800000000     0.0420849  
H211     H      0.937930000000     0.798890000000     0.560110000000     0.0464925  
H212     H      0.006930000000     0.648550000000     0.450930000000     0.0586122  
H213     H      0.058470000000     0.867640000000     0.538010000000     0.0276607  
H214     H      0.070680000000     0.792470000000     0.498860000000     0.0406472  
H215     H      0.053010000000     0.718550000000     0.467070000000     0.0491644  
H216     H      0.919350000000     0.725110000000     0.528400000000     0.0935674  
H217     H      0.933780000000     0.888920000000     0.541760000000     0.0396763  
H218     H      0.056200000000     0.628400000000     0.483930000000     0.0253875  
H219     H      0.032250000000     0.807590000000     0.451350000000     0.0522488  
H220     H      0.958430000000     0.708510000000     0.574800000000     0.0692791  
H221     H      0.064610000000     0.882540000000     0.477460000000     0.0314902  
H222     H      0.928040000000     0.813720000000     0.499730000000     0.0568654  
H223     H      0.061430000000     0.702690000000     0.527400000000     0.0511756  
H224     H      0.924950000000     0.634530000000     0.547730000000    -0.022211   
H225     H      0.984050000000     0.869540000000     0.574020000000     0.0356905  
H226     H      0.070100000000     0.224670000000     0.491890000000     0.0467956  
H227     H      0.927660000000     0.365570000000     0.491010000000     0.0569855  
H228     H      0.990650000000     0.147890000000     0.576030000000     0.0299863  
H229     H      0.944140000000     0.218780000000     0.565560000000     0.0419467  
H230     H      0.921570000000     0.291790000000     0.533660000000     0.0511014  
H231     H      0.047690000000     0.297370000000     0.458510000000     0.0932059  
H232     H      0.063050000000     0.133900000000     0.473410000000     0.0479398  
H233     H      0.928650000000     0.382800000000     0.551120000000     0.0256381  
H234     H      0.928010000000     0.202970000000     0.506780000000     0.0522904  
H235     H      0.062700000000     0.314920000000     0.517030000000     0.0707212  
H236     H      0.937890000000     0.128280000000     0.548110000000     0.0321126  
H237     H      0.027760000000     0.207950000000     0.448350000000     0.0561815  
H238     H      0.964920000000     0.309330000000     0.575840000000     0.0525144  
H239     H      0.052210000000     0.388270000000     0.473520000000    -0.0218292  
H240     H      0.061680000000     0.150360000000     0.533870000000     0.0358962  
H241     H      0.778490000000     0.932040000000     0.480070000000     0.0510678  
H242     H      0.676600000000     0.055750000000     0.592810000000     0.0584403  
H243     H      0.829020000000     0.055440000000     0.424890000000     0.0331419  
H244     H      0.778720000000     0.087450000000     0.480910000000     0.0468791  
H245     H      0.725020000000     0.087660000000     0.535060000000     0.0550307  
H246     H      0.725540000000     0.931330000000     0.534990000000     0.100203   
H247     H      0.863940000000     0.931020000000     0.463720000000     0.0417533  
H248     H      0.639930000000     0.088040000000     0.552880000000     0.0350947  
H249     H      0.814220000000     0.068790000000     0.529550000000     0.0591496  
H250     H      0.688610000000     0.951120000000     0.487970000000     0.0826037  
H251     H      0.864610000000     0.088380000000     0.465510000000     0.039411   
H252     H      0.814320000000     0.950070000000     0.528700000000     0.0670862  
H253     H      0.688560000000     0.067800000000     0.487620000000     0.0618254  
H254     H      0.640800000000     0.930550000000     0.553240000000    -0.00612688 
H255     H      0.828330000000     0.965300000000     0.424120000000     0.0354943  
H256     H      0.274940000000     0.085680000000     0.492820000000     0.0635174  
H257     H      0.164480000000     0.950670000000     0.489690000000     0.0405594  
H258     H      0.337520000000     0.950120000000     0.549210000000     0.0300249  
H259     H      0.275180000000     0.925090000000     0.495080000000     0.0472881  
H260     H      0.224590000000     0.925960000000     0.546540000000     0.0495693  
H261     H      0.226840000000     0.086360000000     0.546830000000     0.0877244  
H262     H      0.361520000000     0.083410000000     0.495090000000     0.0351567  
H263     H      0.137900000000     0.929930000000     0.542440000000     0.0288038  
H264     H      0.298440000000     0.961250000000     0.450270000000     0.0592174  
H265     H      0.201200000000     0.049690000000     0.589750000000     0.0687084  
H266     H      0.361950000000     0.927930000000     0.495940000000     0.043674   
H267     H      0.298810000000     0.048270000000     0.449320000000     0.0626788  
H268     H      0.200100000000     0.963260000000     0.589760000000     0.0542133  
H269     H      0.139790000000     0.084650000000     0.543340000000    -0.0142138  
H270     H      0.336840000000     0.061650000000     0.548450000000     0.030828   
H271     H      0.044990000000     0.794570000000     0.958620000000     0.0428297  
H272     H      0.979480000000     0.651420000000     0.080000000000     0.0704554  
H273     H      0.930440000000     0.868790000000     0.987550000000     0.0306755  
H274     H      0.918240000000     0.796500000000     0.031450000000     0.0436484  
H275     H      0.935870000000     0.723270000000     0.064860000000     0.0530804  
H276     H      0.063640000000     0.721550000000     0.991540000000     0.0931496  
H277     H      0.055220000000     0.885030000000     0.974540000000     0.0310297  
H278     H      0.927370000000     0.632410000000     0.050960000000     0.0274264  
H279     H      0.961230000000     0.812110000000     0.074770000000     0.0566873  
H280     H      0.019820000000     0.703960000000     0.949910000000     0.0690017  
H281     H      0.928980000000     0.886930000000     0.047590000000     0.0382069  
H282     H      0.061160000000     0.810730000000     0.017310000000     0.0558143  
H283     H      0.921440000000     0.705520000000     0.006180000000     0.0523007  
H284     H      0.054120000000     0.630700000000     0.978450000000    -0.0195173  
H285     H      0.002010000000     0.867460000000     0.946210000000     0.0300675  
H286     H      0.019600000000     0.220550000000     0.084390000000     0.0421434  
H287     H      0.003730000000     0.367950000000     0.952360000000     0.068162   
H288     H      0.926970000000     0.146960000000     0.008450000000     0.0307325  
H289     H      0.932560000000     0.221100000000     0.966560000000     0.0435784  
H290     H      0.958230000000     0.296070000000     0.947300000000     0.0534881  
H291     H      0.047560000000     0.294760000000     0.064900000000     0.0921604  
H292     H      0.034990000000     0.131000000000     0.072170000000     0.0314915  
H293     H      0.944270000000     0.386130000000     0.959710000000     0.0382917  
H294     H      0.989870000000     0.207900000000     0.944070000000     0.0539491  
H295     H      0.990510000000     0.310990000000     0.085970000000     0.0684468  
H296     H      0.951240000000     0.131530000000     0.952760000000     0.0305113  
H297     H      0.057610000000     0.206300000000     0.036210000000     0.0561489  
H298     H      0.922440000000     0.311420000000     0.996750000000     0.0564107  
H299     H      0.033340000000     0.384970000000     0.075400000000    -0.0207264  
H300     H      0.974760000000     0.148190000000     0.075820000000     0.0314583  
H301     H      0.768580000000     0.089540000000     0.973800000000     0.0652685  
H302     H      0.659500000000     0.953330000000     0.982250000000     0.0420824  
H303     H      0.832240000000     0.950550000000     0.025760000000     0.0376576  
H304     H      0.767940000000     0.929630000000     0.972510000000     0.0495963  
H305     H      0.726050000000     0.929110000000     0.031790000000     0.0547963  
H306     H      0.726320000000     0.089430000000     0.032820000000     0.0904872  
H307     H      0.856170000000     0.086110000000     0.971880000000     0.0359553  
H308     H      0.639240000000     0.931770000000     0.037470000000     0.0354595  
H309     H      0.790880000000     0.967070000000     0.928560000000     0.0600366  
H310     H      0.706190000000     0.052250000000     0.078330000000     0.0744324  
H311     H      0.855570000000     0.932330000000     0.970740000000     0.0366584  
H312     H      0.791170000000     0.052700000000     0.929230000000     0.0638574  
H313     H      0.705950000000     0.965700000000     0.077810000000     0.0625004  
H314     H      0.639480000000     0.086560000000     0.039420000000    -0.00902267 
H315     H      0.832720000000     0.067180000000     0.026650000000     0.0354434  
H316     H      0.215740000000     0.930620000000     0.049350000000     0.0454734  
H317     H      0.324750000000     0.056860000000     0.947260000000     0.0656695  
H318     H      0.160140000000     0.052200000000     0.102110000000     0.0268958  
H319     H      0.215240000000     0.085760000000     0.051800000000     0.0448045  
H320     H      0.273430000000     0.087710000000     0.003160000000     0.0545243  
H321     H      0.273880000000     0.930770000000     0.000700000000     0.0955555  
H322     H      0.128890000000     0.929030000000     0.056430000000     0.0388837  
H323     H      0.358820000000     0.088650000000     0.989780000000     0.0383088  
H324     H      0.184450000000     0.068410000000     0.999610000000     0.0583028  
H325     H      0.307380000000     0.951070000000     0.049980000000     0.0699972  
H326     H      0.128500000000     0.086430000000     0.059310000000     0.0373236  
H327     H      0.184930000000     0.949530000000     0.997670000000     0.0601288  
H328     H      0.306960000000     0.066030000000     0.051980000000     0.05425    
H329     H      0.359320000000     0.931120000000     0.987740000000    -0.0108682  
H330     H      0.160230000000     0.961690000000     0.100580000000     0.0282861  
H331     H      0.021160000000     0.927940000000     0.789360000000     0.0450761  
H332     H      0.924230000000     0.054380000000     0.676280000000     0.0565553  
H333     H      0.076150000000     0.050020000000     0.843140000000     0.031684   
H334     H      0.024300000000     0.083980000000     0.789390000000     0.0449138  
H335     H      0.977800000000     0.085210000000     0.729940000000     0.0524866  
H336     H      0.975390000000     0.928770000000     0.729420000000     0.0954339  
H337     H      0.029200000000     0.927020000000     0.875800000000     0.0358423  
H338     H      0.968070000000     0.086370000000     0.644120000000     0.0310485  
H339     H      0.972850000000     0.065270000000     0.820650000000     0.0555264  
H340     H      0.026400000000     0.948510000000     0.698220000000     0.0705165  
H341     H      0.033860000000     0.084470000000     0.875270000000     0.040069   
H342     H      0.970230000000     0.948790000000     0.820200000000     0.058961   
H343     H      0.028200000000     0.064020000000     0.698420000000     0.0554155  
H344     H      0.967120000000     0.928890000000     0.643150000000    -0.0127326  
H345     H      0.073810000000     0.958380000000     0.843950000000     0.0305448  
H346     H      0.023160000000     0.932090000000     0.284980000000     0.0467515  
H347     H      0.913730000000     0.058920000000     0.182540000000     0.0573394  
H348     H      0.081630000000     0.053880000000     0.335470000000     0.0355742  
H349     H      0.025820000000     0.087650000000     0.285830000000     0.0449133  
H350     H      0.971150000000     0.089170000000     0.232290000000     0.052577   
H351     H      0.967600000000     0.933310000000     0.232300000000     0.097424   
H352     H      0.040240000000     0.930360000000     0.370190000000     0.0401676  
H353     H      0.954970000000     0.090450000000     0.146720000000     0.0313459  
H354     H      0.977050000000     0.069790000000     0.321530000000     0.0568348  
H355     H      0.015850000000     0.951280000000     0.196060000000     0.073314   
H356     H      0.042050000000     0.087710000000     0.371450000000     0.0443226  
H357     H      0.975230000000     0.951390000000     0.321160000000     0.0610476  
H358     H      0.018950000000     0.068970000000     0.196430000000     0.0546587  
H359     H      0.950770000000     0.933110000000     0.147100000000    -0.00842193 
H360     H      0.080370000000     0.963830000000     0.334470000000     0.0318667  
N1       N      0.455170000000     0.509510000000     0.878960000000    -0.214346   
N2       N      0.528310000000     0.512330000000     0.643310000000    -0.186204   
N3       N      0.522410000000     0.510840000000     0.142820000000    -0.208911   
N4       N      0.455900000000     0.505910000000     0.381050000000    -0.185017   
N5       N      0.506140000000     0.887740000000     0.524870000000    -0.265697   
N6       N      0.486450000000     0.628940000000     0.508730000000    -0.232667   
N7       N      0.488180000000     0.387930000000     0.518860000000    -0.267037   
N8       N      0.503410000000     0.129010000000     0.515960000000    -0.233801   
N9       N      0.485120000000     0.630180000000     0.008310000000    -0.265504   
N10      N      0.499280000000     0.889000000000     0.021070000000    -0.23372    
N11      N      0.485440000000     0.388930000000     0.008940000000    -0.265408   
N12      N      0.499830000000     0.130090000000     0.021370000000    -0.231178   
N13      N      0.508490000000     0.010280000000     0.882980000000    -0.212584   
N14      N      0.483260000000     0.011790000000     0.655540000000    -0.187042   
N15      N      0.533140000000     0.007790000000     0.388740000000    -0.214453   
N16      N      0.467670000000     0.008850000000     0.150980000000    -0.189732   
N17      N      0.622350000000     0.507420000000     0.480940000000    -0.210284   
N18      N      0.857390000000     0.508020000000     0.485370000000    -0.18122    
N19      N      0.357410000000     0.507610000000     0.545010000000    -0.215007   
N20      N      0.122860000000     0.507670000000     0.547350000000    -0.188424   
N21      N      0.855500000000     0.509260000000     0.989040000000    -0.216729   
N22      N      0.621240000000     0.509420000000     0.983090000000    -0.182021   
N23      N      0.355690000000     0.508360000000     0.043770000000    -0.213872   
N24      N      0.122190000000     0.508170000000     0.045120000000    -0.174711   
N25      N      0.022710000000     0.503910000000     0.884500000000    -0.21394    
N26      N      0.952690000000     0.506020000000     0.647680000000    -0.187307   
N27      N      0.974360000000     0.513500000000     0.151620000000    -0.213396   
N28      N      0.008290000000     0.512160000000     0.381890000000    -0.181093   
N29      N      0.993060000000     0.628900000000     0.521390000000    -0.267264   
N30      N      0.996120000000     0.887870000000     0.503040000000    -0.233494   
N31      N      0.993570000000     0.387930000000     0.517480000000    -0.267895   
N32      N      0.996810000000     0.129040000000     0.504460000000    -0.233348   
N33      N      0.635870000000     0.009200000000     0.550490000000    -0.215753   
N34      N      0.868680000000     0.009630000000     0.468730000000    -0.187322   
N35      N      0.133900000000     0.007550000000     0.529680000000    -0.214534   
N36      N      0.367220000000     0.005740000000     0.507110000000    -0.186156   
N37      N      0.987760000000     0.628950000000     0.009480000000    -0.26693    
N38      N      0.995760000000     0.888120000000     0.017300000000    -0.233683   
N39      N      0.984140000000     0.388220000000     0.021240000000    -0.265959   
N40      N      0.999060000000     0.129090000000     0.008220000000    -0.233333   
N41      N      0.633000000000     0.009440000000     0.025940000000    -0.214808   
N42      N      0.861130000000     0.009070000000     0.986620000000    -0.185952   
N43      N      0.363570000000     0.009800000000     0.990800000000    -0.213602   
N44      N      0.124560000000     0.007790000000     0.053730000000    -0.188373   
N45      N      0.969350000000     0.007560000000     0.639060000000    -0.216362   
N46      N      0.028570000000     0.005840000000     0.880060000000    -0.186606   
N47      N      0.956040000000     0.011620000000     0.142550000000    -0.216443   
N48      N      0.036970000000     0.009050000000     0.375250000000    -0.184538   
O1       O      0.976920000000     0.051000000000     0.075540000000    -0.483565   
O2       O      0.011510000000     0.047130000000     0.947160000000    -0.483461   
O3       O      0.930240000000     0.049080000000     0.997740000000    -0.481562   
O4       O      0.058750000000     0.048380000000     0.031340000000    -0.485744   
O5       O      0.058440000000     0.967830000000     0.031100000000    -0.485138   
O6       O      0.929940000000     0.968290000000     0.996860000000    -0.480711   
O7       O      0.010260000000     0.966490000000     0.947940000000    -0.485069   
O8       O      0.976020000000     0.970300000000     0.076380000000    -0.480979   
O9       O      0.985920000000     0.048250000000     0.571430000000    -0.489988   
O10      O      0.017300000000     0.049060000000     0.442230000000    -0.473783   
O11      O      0.935680000000     0.049270000000     0.489020000000    -0.486081   
O12      O      0.065070000000     0.048790000000     0.520170000000    -0.471078   
O13      O      0.064350000000     0.967890000000     0.519860000000    -0.48482    
O14      O      0.935260000000     0.968800000000     0.488160000000    -0.484553   
O15      O      0.016750000000     0.968320000000     0.441680000000    -0.477142   
O16      O      0.984820000000     0.967620000000     0.570780000000    -0.487306   
O17      O      0.979980000000     0.551900000000     0.081020000000    -0.466829   
O18      O      0.005040000000     0.546190000000     0.950760000000    -0.48898    
O19      O      0.924140000000     0.549190000000     0.002640000000    -0.498969   
O20      O      0.054470000000     0.548740000000     0.028830000000    -0.445207   
O21      O      0.053830000000     0.467960000000     0.030490000000    -0.447326   
O22      O      0.923450000000     0.468790000000     0.004410000000    -0.493194   
O23      O      0.004350000000     0.465550000000     0.952830000000    -0.47454    
O24      O      0.978770000000     0.471160000000     0.083070000000    -0.488887   
O25      O      0.972450000000     0.547920000000     0.581790000000    -0.4868     
O26      O      0.000970000000     0.550550000000     0.452230000000    -0.47339    
O27      O      0.925000000000     0.548380000000     0.503090000000    -0.45139    
O28      O      0.054660000000     0.547950000000     0.532670000000    -0.494509   
O29      O      0.055170000000     0.467630000000     0.530010000000    -0.492574   
O30      O      0.925470000000     0.467510000000     0.500680000000    -0.471824   
O31      O      0.001510000000     0.469800000000     0.450350000000    -0.452121   
O32      O      0.973090000000     0.467260000000     0.580200000000    -0.486208   
O33      O      0.485000000000     0.049530000000     0.083830000000    -0.49352    
O34      O      0.503640000000     0.049890000000     0.952750000000    -0.471085   
O35      O      0.431570000000     0.050210000000     0.006520000000    -0.47865    
O36      O      0.563200000000     0.049750000000     0.024890000000    -0.478386   
O37      O      0.563170000000     0.969180000000     0.024130000000    -0.490419   
O38      O      0.431660000000     0.969290000000     0.005640000000    -0.480386   
O39      O      0.503560000000     0.969160000000     0.952080000000    -0.482328   
O40      O      0.484820000000     0.969040000000     0.083310000000    -0.492707   
O41      O      0.492320000000     0.051620000000     0.586210000000    -0.484608   
O42      O      0.515780000000     0.048560000000     0.455810000000    -0.491483   
O43      O      0.436630000000     0.046530000000     0.512510000000    -0.487361   
O44      O      0.567650000000     0.048960000000     0.534580000000    -0.483045   
O45      O      0.568310000000     0.968280000000     0.534680000000    -0.483787   
O46      O      0.437240000000     0.965850000000     0.511700000000    -0.476566   
O47      O      0.515830000000     0.968070000000     0.456500000000    -0.465191   
O48      O      0.492530000000     0.970800000000     0.586910000000    -0.484798   
O49      O      0.503480000000     0.550730000000     0.075450000000    -0.472413   
O50      O      0.472050000000     0.550030000000     0.946400000000    -0.489358   
O51      O      0.423070000000     0.549270000000     0.026820000000    -0.491245   
O52      O      0.552480000000     0.549330000000     0.996410000000    -0.458119   
O53      O      0.553090000000     0.468700000000     0.997090000000    -0.481451   
O54      O      0.423860000000     0.468710000000     0.027690000000    -0.481366   
O55      O      0.473070000000     0.469460000000     0.946480000000    -0.486523   
O56      O      0.504720000000     0.469840000000     0.075630000000    -0.455898   
O57      O      0.507360000000     0.551620000000     0.576330000000    -0.486327   
O58      O      0.473280000000     0.547260000000     0.447940000000    -0.482278   
O59      O      0.425400000000     0.548010000000     0.529500000000    -0.489676   
O60      O      0.554230000000     0.547580000000     0.496850000000    -0.4853     
O61      O      0.554260000000     0.466810000000     0.496050000000    -0.446676   
O62      O      0.425400000000     0.467460000000     0.528870000000    -0.483334   
O63      O      0.474750000000     0.466560000000     0.448730000000    -0.477714   
O64      O      0.507870000000     0.470990000000     0.577350000000    -0.484545   


