data_structure

_audit_creation_method RASPA-1.0
_audit_creation_date 2023-5-22
_audit_author_name 'Poobodin Mano'

_cell_length_a    28.7609
_cell_length_b    28.976
_cell_length_c    28.746
_cell_angle_alpha 89.9999
_cell_angle_beta  89.9998
_cell_angle_gamma 90
_cell_volume      23956.2

_symmetry_cell_setting          triclinic
_symmetry_space_group_name_Hall 'P 1'
_symmetry_space_group_name_H-M  'P 1'
_symmetry_Int_Tables_number     1

_symmetry_equiv_pos_as_xyz 'x,y,z'

loop_
_atom_site_label
_atom_site_type_symbol
_atom_site_fract_x
_atom_site_fract_y
_atom_site_fract_z
_atom_site_charge
C1       C      0.021040000000     0.087750000000     0.490140000000     0.401741   
C2       C      0.032720000000     0.907720000000     0.524920000000     0.402602   
C3       C      0.036570000000     0.013780000000     0.598350000000     0.401849   
C4       C      0.017160000000     0.982870000000     0.417060000000     0.400768   
C5       C      0.019180000000     0.415700000000     0.516270000000     0.402333   
C6       C      0.029160000000     0.590500000000     0.460190000000     0.402866   
C7       C      0.012090000000     0.478350000000     0.399390000000     0.399554   
C8       C      0.036380000000     0.527520000000     0.576410000000     0.399689   
C9       C      0.487590000000     0.137680000000     0.513410000000     0.401264   
C10      C      0.483710000000     0.960210000000     0.562200000000     0.400675   
C11      C      0.494040000000     0.072240000000     0.626550000000     0.402123   
C12      C      0.477270000000     0.024960000000     0.448470000000     0.401323   
C13      C      0.493930000000     0.455170000000     0.581550000000     0.401654   
C14      C      0.483600000000     0.631910000000     0.530920000000     0.401337   
C15      C      0.498440000000     0.519650000000     0.467680000000     0.401555   
C16      C      0.479020000000     0.567600000000     0.645430000000     0.402294   
C17      C      0.954650000000     0.035880000000     0.980430000000     0.402774   
C18      C      0.131190000000     0.028940000000     0.035580000000     0.402145   
C19      C      0.069760000000     0.049300000000     0.920760000000     0.402401   
C20      C      0.017350000000     0.015640000000     0.094900000000     0.400732   
C21      C      0.938640000000     0.494630000000     0.958820000000     0.401986   
C22      C      0.114270000000     0.510320000000     0.016030000000     0.399302   
C23      C      0.051300000000     0.529340000000     0.902640000000     0.400682   
C24      C      0.001170000000     0.475570000000     0.072760000000     0.400066   
C25      C      0.460610000000     0.024140000000     0.007390000000     0.402055   
C26      C      0.639720000000     0.021650000000     0.053970000000     0.402723   
C27      C      0.571600000000     0.022680000000     0.941100000000     0.402158   
C28      C      0.528180000000     0.023080000000     0.121050000000     0.401088   
C29      C      0.441340000000     0.500900000000     0.063030000000     0.399738   
C30      C      0.624960000000     0.478700000000     0.049960000000     0.401079   
C31      C      0.528150000000     0.505380000000     0.964890000000     0.401732   
C32      C      0.538770000000     0.474150000000     0.147050000000     0.402257   
C33      C      0.694870000000     0.429080000000     0.038300000000     0.0118717  
C34      C      0.863820000000     0.531930000000     0.939310000000     0.0156023  
C35      C      0.871160000000     0.447320000000     0.932560000000     0.0122815  
C36      C      0.826390000000     0.529670000000     0.976530000000    -0.0997009  
C37      C      0.731140000000     0.434390000000     0.999180000000    -0.0999164  
C38      C      0.828820000000     0.439390000000     0.964520000000    -0.0990986  
C39      C      0.759440000000     0.479240000000     0.000950000000     0.0169985  
C40      C      0.801760000000     0.482910000000     0.978750000000     0.0166996  
C41      C      0.703690000000     0.511280000000     0.060810000000     0.0144632  
C42      C      0.734800000000     0.522170000000     0.019490000000    -0.100283   
C43      C      0.373450000000     0.549980000000     0.083590000000     0.00987227 
C44      C      0.189900000000     0.472820000000     0.029610000000     0.0122981  
C45      C      0.181210000000     0.560410000000     0.035780000000     0.00945844 
C46      C      0.224250000000     0.474720000000     0.069820000000    -0.102298   
C47      C      0.328240000000     0.562570000000     0.057580000000    -0.101521   
C48      C      0.220960000000     0.561120000000     0.071850000000    -0.101786   
C49      C      0.297160000000     0.520540000000     0.052060000000     0.0189107  
C50      C      0.251610000000     0.518970000000     0.066010000000     0.0193284  
C51      C      0.362830000000     0.466210000000     0.060940000000     0.0122272  
C52      C      0.321910000000     0.479770000000     0.030320000000    -0.101653   
C53      C      0.882930000000     0.996590000000     0.953130000000     0.0136524  
C54      C      0.711690000000     0.063040000000     0.077110000000     0.0139427  
C55      C      0.713360000000     0.978530000000     0.066100000000     0.0137766  
C56      C      0.749070000000     0.071310000000     0.040220000000    -0.0996948  
C57      C      0.844780000000     0.987850000000     0.989200000000    -0.0995833  
C58      C      0.750490000000     0.981300000000     0.028090000000    -0.0997197  
C59      C      0.818360000000     0.031390000000     0.004170000000     0.0169754  
C60      C      0.775960000000     0.027770000000     0.026170000000     0.0169186  
C61      C      0.882450000000     0.080720000000     0.966490000000     0.0143113  
C62      C      0.844080000000     0.077770000000     0.003160000000    -0.0996987  
C63      C      0.389280000000     0.982170000000     0.983400000000     0.0136729  
C64      C      0.202330000000     0.068350000000     0.064240000000     0.0136968  
C65      C      0.200070000000     0.983130000000     0.059660000000     0.0136272  
C66      C      0.246290000000     0.071460000000     0.034500000000    -0.0998896  
C67      C      0.345570000000     0.979780000000     0.013580000000    -0.0998934  
C68      C      0.244400000000     0.980910000000     0.030400000000    -0.0997263  
C69      C      0.318750000000     0.025360000000     0.016770000000     0.016827   
C70      C      0.272680000000     0.025740000000     0.029960000000     0.0168059  
C71      C      0.389950000000     0.067610000000     0.984050000000     0.0134001  
C72      C      0.346780000000     0.070280000000     0.014980000000    -0.0998451  
C73      C      0.572100000000     0.496340000000     0.222950000000     0.0132441  
C74      C      0.465450000000     0.486560000000     0.395270000000     0.0108998  
C75      C      0.546000000000     0.522300000000     0.396240000000     0.0122784  
C76      C      0.483660000000     0.446810000000     0.364650000000    -0.101876   
C77      C      0.545510000000     0.510860000000     0.266370000000    -0.101538   
C78      C      0.564140000000     0.482320000000     0.367070000000    -0.101628   
C79      C      0.523930000000     0.469260000000     0.290160000000     0.0193284  
C80      C      0.525230000000     0.463740000000     0.337190000000     0.0182283  
C81      C      0.523130000000     0.424660000000     0.215510000000     0.0122268  
C82      C      0.495180000000     0.438040000000     0.259080000000    -0.102054   
C83      C      0.503180000000     0.479910000000     0.886590000000     0.0118442  
C84      C      0.510680000000     0.603090000000     0.717360000000     0.0133615  
C85      C      0.432520000000     0.565380000000     0.717810000000     0.0124064  
C86      C      0.526890000000     0.573560000000     0.758360000000    -0.100816   
C87      C      0.467280000000     0.504350000000     0.855610000000    -0.10183    
C88      C      0.447000000000     0.532800000000     0.757260000000    -0.100978   
C89      C      0.489740000000     0.545760000000     0.832390000000     0.018454   
C90      C      0.486080000000     0.553940000000     0.785820000000     0.017462   
C91      C      0.547430000000     0.554330000000     0.896960000000     0.0127402  
C92      C      0.512930000000     0.579410000000     0.865510000000    -0.101673   
C93      C      0.431230000000     0.024820000000     0.375780000000     0.0123861  
C94      C      0.536300000000     0.985730000000     0.197750000000     0.0120307  
C95      C      0.497070000000     0.063690000000     0.190050000000     0.0116516  
C96      C      0.499600000000     0.970940000000     0.233000000000    -0.101693   
C97      C      0.445550000000     0.047740000000     0.329840000000    -0.101682   
C98      C      0.459640000000     0.048880000000     0.225230000000    -0.102155   
C99      C      0.480770000000     0.017930000000     0.304600000000     0.0183551  
C100     C      0.479810000000     0.012740000000     0.257500000000     0.018691   
C101     C      0.507440000000     0.982480000000     0.380100000000     0.0126143  
C102     C      0.522400000000     0.002640000000     0.333320000000    -0.101081   
C103     C      0.463550000000     0.067560000000     0.706740000000     0.0122166  
C104     C      0.601680000000     0.061950000000     0.870440000000     0.0133244  
C105     C      0.563030000000     0.984960000000     0.864520000000     0.0121616  
C106     C      0.567540000000     0.082900000000     0.835470000000    -0.100853   
C107     C      0.486650000000     0.033960000000     0.740910000000    -0.100947   
C108     C      0.525540000000     0.004160000000     0.831920000000    -0.10081    
C109     C      0.530400000000     0.055310000000     0.761430000000     0.0176994  
C110     C      0.543970000000     0.046020000000     0.805880000000     0.0174001  
C111     C      0.539440000000     0.106810000000     0.691060000000     0.0137071  
C112     C      0.564300000000     0.076390000000     0.726700000000    -0.101074   
C113     C      0.437330000000     0.701200000000     0.509020000000     0.0126439  
C114     C      0.525380000000     0.888790000000     0.585470000000     0.0133687  
C115     C      0.439300000000     0.890150000000     0.585140000000     0.01293    
C116     C      0.527390000000     0.845810000000     0.554710000000    -0.0997868  
C117     C      0.435590000000     0.745640000000     0.538120000000    -0.0996532  
C118     C      0.436300000000     0.846560000000     0.555080000000    -0.0997443  
C119     C      0.481220000000     0.773060000000     0.539400000000     0.0168343  
C120     C      0.481600000000     0.818880000000     0.552510000000     0.0167447  
C121     C      0.523280000000     0.703320000000     0.504880000000     0.0141563  
C122     C      0.526730000000     0.745950000000     0.535800000000    -0.0999249  
C123     C      0.454710000000     0.382500000000     0.604560000000     0.0145678  
C124     C      0.531690000000     0.208690000000     0.492740000000     0.0128836  
C125     C      0.445900000000     0.210940000000     0.497230000000     0.0141385  
C126     C      0.537090000000     0.247840000000     0.528270000000    -0.0995574  
C127     C      0.449050000000     0.344520000000     0.568250000000    -0.0997351  
C128     C      0.445920000000     0.249150000000     0.533840000000    -0.0998554  
C129     C      0.494030000000     0.318090000000     0.558070000000     0.0166208  
C130     C      0.492290000000     0.274940000000     0.537840000000     0.0166593  
C131     C      0.540280000000     0.384240000000     0.596930000000     0.0125947  
C132     C      0.540210000000     0.344470000000     0.561560000000    -0.099385   
C133     C      0.001340000000     0.416000000000     0.134480000000     0.0118861  
C134     C      0.965410000000     0.487730000000     0.328200000000     0.0115506  
C135     C      0.044560000000     0.448440000000     0.325760000000     0.0114581  
C136     C      0.948320000000     0.454970000000     0.290340000000    -0.101916   
C137     C      0.023660000000     0.420970000000     0.182670000000    -0.101529   
C138     C      0.026560000000     0.415290000000     0.288060000000    -0.102618   
C139     C      0.992770000000     0.449320000000     0.214490000000     0.0183125  
C140     C      0.988640000000     0.439190000000     0.260680000000     0.0191715  
C141     C      0.956700000000     0.489690000000     0.145280000000     0.0122111  
C142     C      0.975820000000     0.495030000000     0.194660000000    -0.100493   
C143     C      0.083380000000     0.517670000000     0.647280000000     0.0115153  
C144     C      0.050570000000     0.589090000000     0.841110000000     0.0124542  
C145     C      0.094660000000     0.515190000000     0.829410000000     0.0123104  
C146     C      0.027180000000     0.584200000000     0.793430000000    -0.101927   
C147     C      0.101000000000     0.550530000000     0.684750000000    -0.101869   
C148     C      0.074520000000     0.510010000000     0.780420000000    -0.100871   
C149     C      0.061050000000     0.566270000000     0.714880000000     0.0188864  
C150     C      0.057410000000     0.555840000000     0.761020000000     0.0184227  
C151     C      0.004350000000     0.557110000000     0.650410000000     0.010879   
C152     C      0.022740000000     0.590180000000     0.688030000000    -0.102531   
C153     C      0.028940000000     0.037600000000     0.176260000000     0.011319   
C154     C      0.968720000000     0.961150000000     0.349670000000     0.012056   
C155     C      0.044060000000     0.006690000000     0.339970000000     0.0117803  
C156     C      0.977510000000     0.937500000000     0.302550000000    -0.10279    
C157     C      0.999700000000     0.039680000000     0.220400000000    -0.101722   
C158     C      0.051570000000     0.983530000000     0.293040000000    -0.102083   
C159     C      0.986060000000     0.991700000000     0.235300000000     0.0205616  
C160     C      0.005490000000     0.969750000000     0.272310000000     0.0197959  
C161     C      0.988890000000     0.961750000000     0.154880000000     0.012441   
C162     C      0.958890000000     0.965540000000     0.199020000000    -0.103367   
C163     C      0.109940000000     0.024830000000     0.848530000000     0.0131418  
C164     C      0.004900000000     0.042280000000     0.673120000000     0.0110019  
C165     C      0.083110000000     0.002290000000     0.669510000000     0.0127438  
C166     C      0.025490000000     0.079670000000     0.705150000000    -0.102152   
C167     C      0.084820000000     0.013150000000     0.803180000000    -0.100991   
C168     C      0.103940000000     0.039190000000     0.700930000000    -0.101768   
C169     C      0.067110000000     0.056330000000     0.778740000000     0.0184059  
C170     C      0.066380000000     0.059490000000     0.731500000000     0.0185376  
C171     C      0.069710000000     0.101520000000     0.852740000000     0.0124749  
C172     C      0.041290000000     0.090740000000     0.808940000000    -0.101608   
C173     C      0.989310000000     0.662790000000     0.437290000000     0.0151865  
C174     C      0.080360000000     0.836990000000     0.535940000000     0.0136492  
C175     C      0.994980000000     0.833530000000     0.545730000000     0.013956   
C176     C      0.080350000000     0.798260000000     0.499710000000    -0.0999118  
C177     C      0.987830000000     0.701520000000     0.473050000000    -0.0996016  
C178     C      0.989520000000     0.796090000000     0.508760000000    -0.0996397  
C179     C      0.033970000000     0.727450000000     0.477710000000     0.016706   
C180     C      0.034920000000     0.770680000000     0.497620000000     0.0167493  
C181     C      0.075080000000     0.659290000000     0.436210000000     0.0130402  
C182     C      0.079400000000     0.700930000000     0.468980000000    -0.0994254  
C183     C      0.973460000000     0.348140000000     0.543870000000     0.0130516  
C184     C      0.059480000000     0.160650000000     0.466590000000     0.0138112  
C185     C      0.973580000000     0.157370000000     0.472920000000     0.0130135  
C186     C      0.062790000000     0.202710000000     0.498300000000    -0.100029   
C187     C      0.970830000000     0.302020000000     0.517680000000    -0.0993722  
C188     C      0.971970000000     0.200750000000     0.503360000000    -0.0997251  
C189     C      0.016700000000     0.275070000000     0.515120000000     0.0166718  
C190     C      0.016910000000     0.229110000000     0.502810000000     0.0166135  
C191     C      0.059430000000     0.346050000000     0.545680000000     0.0147151  
C192     C      0.062260000000     0.302270000000     0.516580000000    -0.0998985  
Cu1      Cu     0.984180000000     0.996070000000     0.512550000000     0.835887   
Cu2      Cu     0.069370000000     0.999490000000     0.503050000000     0.846694   
Cu3      Cu     0.981690000000     0.507200000000     0.492520000000     0.839735   
Cu4      Cu     0.066650000000     0.498800000000     0.483290000000     0.840763   
Cu5      Cu     0.442990000000     0.050590000000     0.540910000000     0.840562   
Cu6      Cu     0.528400000000     0.047120000000     0.534040000000     0.835971   
Cu7      Cu     0.446080000000     0.539790000000     0.553040000000     0.838573   
Cu8      Cu     0.531320000000     0.547430000000     0.560060000000     0.840799   
Cu9      Cu     0.042290000000     0.074250000000     0.015430000000     0.845005   
Cu10     Cu     0.043770000000     0.990530000000     0.999890000000     0.836188   
Cu11     Cu     0.018880000000     0.543020000000     0.998330000000     0.838837   
Cu12     Cu     0.033790000000     0.461790000000     0.977060000000     0.837613   
Cu13     Cu     0.550620000000     0.065510000000     0.031180000000     0.837233   
Cu14     Cu     0.549510000000     0.980380000000     0.030980000000     0.842967   
Cu15     Cu     0.539080000000     0.531420000000     0.062990000000     0.841943   
Cu16     Cu     0.527200000000     0.448150000000     0.049060000000     0.838113   
H1       H      0.753840000000     0.403540000000     0.001550000000     0.0423814  
H2       H      0.846620000000     0.531860000000     0.904610000000     0.024958   
H3       H      0.726080000000     0.500540000000     0.090490000000     0.0259523  
H4       H      0.759580000000     0.548630000000     0.032290000000     0.0425278  
H5       H      0.801470000000     0.557740000000     0.968060000000     0.0424674  
H6       H      0.805680000000     0.414950000000     0.945810000000     0.0422186  
H7       H      0.669510000000     0.401900000000     0.028290000000     0.0355224  
H8       H      0.883280000000     0.564930000000     0.942490000000     0.0340413  
H9       H      0.713600000000     0.537580000000     0.991130000000     0.0523878  
H10      H      0.841150000000     0.422240000000     0.996850000000     0.0496584  
H11      H      0.685160000000     0.543200000000     0.071570000000     0.035117   
H12      H      0.858670000000     0.448430000000     0.895930000000     0.0261713  
H13      H      0.712850000000     0.433180000000     0.965140000000     0.0499241  
H14      H      0.842420000000     0.536960000000     0.010960000000     0.0532547  
H15      H      0.895320000000     0.417530000000     0.935640000000     0.0352156  
H16      H      0.713160000000     0.416950000000     0.070150000000     0.0269609  
H17      H      0.311870000000     0.590840000000     0.077590000000     0.0426782  
H18      H      0.209310000000     0.471200000000     0.996170000000     0.0291142  
H19      H      0.349560000000     0.455080000000     0.095530000000     0.0278214  
H20      H      0.299830000000     0.449380000000     0.023060000000     0.0431324  
H21      H      0.245620000000     0.443010000000     0.071710000000     0.0428377  
H22      H      0.239430000000     0.594330000000     0.067800000000     0.0426764  
H23      H      0.398050000000     0.579400000000     0.080530000000     0.0362328  
H24      H      0.169490000000     0.440400000000     0.032970000000     0.0352162  
H25      H      0.335480000000     0.490560000000     0.995760000000     0.0519192  
H26      H      0.205790000000     0.560760000000     0.107420000000     0.0490196  
H27      H      0.380420000000     0.436100000000     0.044700000000     0.0358984  
H28      H      0.195640000000     0.571470000000     0.001660000000     0.0290636  
H29      H      0.337030000000     0.576140000000     0.022500000000     0.0495605  
H30      H      0.204320000000     0.475110000000     0.102980000000     0.0510839  
H31      H      0.155020000000     0.586730000000     0.046040000000     0.0363457  
H32      H      0.365050000000     0.546070000000     0.121150000000     0.0282772  
H33      H      0.820930000000     0.962200000000     0.973230000000     0.0425115  
H34      H      0.729200000000     0.058600000000     0.111350000000     0.0257026  
H35      H      0.865810000000     0.085470000000     0.931860000000     0.0250217  
H36      H      0.819930000000     0.106630000000     0.995310000000     0.0423982  
H37      H      0.772540000000     0.097860000000     0.055170000000     0.0425362  
H38      H      0.774960000000     0.952490000000     0.035170000000     0.042363   
H39      H      0.905110000000     0.965330000000     0.950020000000     0.0350933  
H40      H      0.689040000000     0.094020000000     0.079740000000     0.0352259  
H41      H      0.859670000000     0.083790000000     0.038020000000     0.0523208  
H42      H      0.733770000000     0.975140000000     0.993780000000     0.0518445  
H43      H      0.904300000000     0.111650000000     0.973180000000     0.0346487  
H44      H      0.731160000000     0.974940000000     0.100290000000     0.0255773  
H45      H      0.860800000000     0.972090000000     0.020610000000     0.0512746  
H46      H      0.732350000000     0.085880000000     0.008600000000     0.0517174  
H47      H      0.691950000000     0.947050000000     0.060720000000     0.0350908  
H48      H      0.866100000000     0.002420000000     0.918760000000     0.025733   
H49      H      0.324030000000     0.952040000000     0.997960000000     0.0421686  
H50      H      0.212890000000     0.065970000000     0.101420000000     0.0254769  
H51      H      0.378500000000     0.067970000000     0.947060000000     0.0256763  
H52      H      0.325770000000     0.099160000000     0.000770000000     0.0423254  
H53      H      0.268130000000     0.098350000000     0.051210000000     0.0422232  
H54      H      0.264830000000     0.951890000000     0.045130000000     0.0422167  
H55      H      0.410290000000     0.950470000000     0.988990000000     0.034859   
H56      H      0.181930000000     0.100660000000     0.060040000000     0.0350924  
H57      H      0.357630000000     0.079340000000     0.050950000000     0.0507203  
H58      H      0.234920000000     0.972200000000     0.993950000000     0.0510004  
H59      H      0.411550000000     0.098890000000     0.989850000000     0.0351193  
H60      H      0.210060000000     0.980890000000     0.097000000000     0.025498   
H61      H      0.355580000000     0.969080000000     0.049330000000     0.051179   
H62      H      0.236630000000     0.083480000000     0.999070000000     0.0512871  
H63      H      0.178100000000     0.952560000000     0.051780000000     0.0351913  
H64      H      0.378370000000     0.982400000000     0.946250000000     0.0250258  
H65      H      0.568770000000     0.531540000000     0.288880000000     0.0435707  
H66      H      0.449260000000     0.513010000000     0.372360000000     0.0295634  
H67      H      0.551820000000     0.401130000000     0.226050000000     0.0288029  
H68      H      0.485520000000     0.405460000000     0.277050000000     0.0429157  
H69      H      0.454630000000     0.434660000000     0.342390000000     0.0427333  
H70      H      0.595450000000     0.492470000000     0.347020000000     0.0430465  
H71      H      0.584270000000     0.527650000000     0.204190000000     0.0346452  
H72      H      0.437860000000     0.472760000000     0.418530000000     0.0348818  
H73      H      0.462820000000     0.456310000000     0.248700000000     0.0505661  
H74      H      0.575790000000     0.454430000000     0.390960000000     0.051915   
H75      H      0.499890000000     0.405500000000     0.191350000000     0.03451    
H76      H      0.537150000000     0.551410000000     0.372620000000     0.0265738  
H77      H      0.516860000000     0.534380000000     0.255800000000     0.0535007  
H78      H      0.494510000000     0.417560000000     0.387190000000     0.0496126  
H79      H      0.574290000000     0.534450000000     0.419560000000     0.035628   
H80      H      0.603530000000     0.476890000000     0.234090000000     0.0262213  
H81      H      0.454380000000     0.478540000000     0.830150000000     0.0430396  
H82      H      0.496250000000     0.635820000000     0.731510000000     0.0257615  
H83      H      0.577320000000     0.542920000000     0.875250000000     0.0263593  
H84      H      0.530290000000     0.608900000000     0.848320000000     0.0429047  
H85      H      0.551450000000     0.594200000000     0.779400000000     0.0430089  
H86      H      0.415650000000     0.526560000000     0.779000000000     0.04281    
H87      H      0.485390000000     0.451660000000     0.905790000000     0.0349898  
H88      H      0.541000000000     0.612190000000     0.695190000000     0.0342587  
H89      H      0.485390000000     0.594810000000     0.887770000000     0.0526332  
H90      H      0.458830000000     0.499350000000     0.742480000000     0.0512059  
H91      H      0.561150000000     0.578860000000     0.923330000000     0.0347674  
H92      H      0.416230000000     0.596650000000     0.733280000000     0.0274238  
H93      H      0.437400000000     0.516090000000     0.877090000000     0.0502566  
H94      H      0.547180000000     0.543970000000     0.744430000000     0.05378    
H95      H      0.405990000000     0.547820000000     0.695950000000     0.0351793  
H96      H      0.530210000000     0.464080000000     0.863960000000     0.0288151  
H97      H      0.413370000000     0.052390000000     0.308940000000     0.0428652  
H98      H      0.567130000000     0.998670000000     0.217120000000     0.0269949  
H99      H      0.491350000000     0.948180000000     0.373550000000     0.0262346  
H100     H      0.545260000000     0.977480000000     0.315530000000     0.0433343  
H101     H      0.513830000000     0.944390000000     0.256800000000     0.0430777  
H102     H      0.447840000000     0.080340000000     0.243820000000     0.0429414  
H103     H      0.407960000000     0.048830000000     0.394980000000     0.0349351  
H104     H      0.547680000000     0.954980000000     0.177620000000     0.0355827  
H105     H      0.544210000000     0.033600000000     0.340040000000     0.0530562  
H106     H      0.429330000000     0.034070000000     0.206440000000     0.0499558  
H107     H      0.538700000000     0.976660000000     0.402090000000     0.0347652  
H108     H      0.524470000000     0.083450000000     0.208750000000     0.0297803  
H109     H      0.460960000000     0.082230000000     0.336850000000     0.050874   
H110     H      0.470800000000     0.953720000000     0.213910000000     0.052012   
H111     H      0.480820000000     0.087190000000     0.164130000000     0.0345128  
H112     H      0.411180000000     0.992940000000     0.367830000000     0.0283829  
H113     H      0.460730000000     0.025870000000     0.768420000000     0.0431468  
H114     H      0.632640000000     0.049610000000     0.850870000000     0.0256222  
H115     H      0.528030000000     0.138890000000     0.709000000000     0.0256033  
H116     H      0.592480000000     0.096810000000     0.742860000000     0.0428286  
H117     H      0.586070000000     0.109530000000     0.815090000000     0.0428052  
H118     H      0.515630000000     0.976000000000     0.807590000000     0.0430691  
H119     H      0.433310000000     0.050140000000     0.690240000000     0.0349382  
H120     H      0.613640000000     0.089020000000     0.895100000000     0.0338939  
H121     H      0.581530000000     0.047590000000     0.707840000000     0.0537149  
H122     H      0.494370000000     0.014230000000     0.852420000000     0.0514154  
H123     H      0.564190000000     0.117020000000     0.663170000000     0.0335844  
H124     H      0.592210000000     0.971350000000     0.843120000000     0.0273912  
H125     H      0.495860000000     0.001440000000     0.722560000000     0.0510812  
H126     H      0.539930000000     0.101310000000     0.855180000000     0.0536823  
H127     H      0.548130000000     0.955760000000     0.884700000000     0.0353882  
H128     H      0.450460000000     0.097910000000     0.726520000000     0.0277257  
H129     H      0.406990000000     0.766520000000     0.522980000000     0.0423869  
H130     H      0.525100000000     0.877500000000     0.622480000000     0.0255571  
H131     H      0.520930000000     0.714960000000     0.468050000000     0.0256699  
H132     H      0.554900000000     0.767140000000     0.520310000000     0.0422581  
H133     H      0.555870000000     0.824480000000     0.569400000000     0.0422521  
H134     H      0.407700000000     0.825760000000     0.570320000000     0.0423122  
H135     H      0.406600000000     0.679560000000     0.517650000000     0.0354174  
H136     H      0.557480000000     0.909450000000     0.580060000000     0.035044   
H137     H      0.537510000000     0.735240000000     0.571330000000     0.0519409  
H138     H      0.426200000000     0.856590000000     0.519140000000     0.0510205  
H139     H      0.555750000000     0.682780000000     0.508240000000     0.0349432  
H140     H      0.438650000000     0.879520000000     0.622340000000     0.0257088  
H141     H      0.426030000000     0.736550000000     0.574450000000     0.0504215  
H142     H      0.537160000000     0.856230000000     0.518800000000     0.0509857  
H143     H      0.407960000000     0.911690000000     0.578840000000     0.0353854  
H144     H      0.434630000000     0.710810000000     0.471630000000     0.0266543  
H145     H      0.421650000000     0.321360000000     0.582210000000     0.0423992  
H146     H      0.530270000000     0.224220000000     0.457350000000     0.0258945  
H147     H      0.543950000000     0.369280000000     0.632390000000     0.0260754  
H148     H      0.568950000000     0.321170000000     0.572210000000     0.0421773  
H149     H      0.564740000000     0.270680000000     0.514280000000     0.0421367  
H150     H      0.417270000000     0.272750000000     0.523670000000     0.0422606  
H151     H      0.422560000000     0.403770000000     0.605830000000     0.0342845  
H152     H      0.562920000000     0.186140000000     0.494150000000     0.0352669  
H153     H      0.548530000000     0.358680000000     0.526620000000     0.0501705  
H154     H      0.437480000000     0.233850000000     0.568280000000     0.0523029  
H155     H      0.571040000000     0.406590000000     0.590530000000     0.0349848  
H156     H      0.444920000000     0.227350000000     0.462240000000     0.0250907  
H157     H      0.436290000000     0.360090000000     0.535300000000     0.0522194  
H158     H      0.549490000000     0.232960000000     0.561690000000     0.0506826  
H159     H      0.413740000000     0.189970000000     0.500880000000     0.0347012  
H160     H      0.458760000000     0.365930000000     0.639270000000     0.0250274  
H161     H      0.028790000000     0.385480000000     0.196420000000     0.0426352  
H162     H      0.975790000000     0.520820000000     0.311580000000     0.0274076  
H163     H      0.922550000000     0.471820000000     0.147590000000     0.0262541  
H164     H      0.949120000000     0.512330000000     0.216200000000     0.0432303  
H165     H      0.919530000000     0.470740000000     0.270250000000     0.0428908  
H166     H      0.056680000000     0.404690000000     0.266470000000     0.0428193  
H167     H      0.026220000000     0.397730000000     0.111300000000     0.0350645  
H168     H      0.935930000000     0.495460000000     0.351960000000     0.0358199  
H169     H      0.006050000000     0.518900000000     0.193430000000     0.0526734  
H170     H      0.012140000000     0.383780000000     0.304740000000     0.0497514  
H171     H      0.950220000000     0.524440000000     0.130230000000     0.0347895  
H172     H      0.064160000000     0.476880000000     0.308680000000     0.0303891  
H173     H      0.058140000000     0.438000000000     0.179440000000     0.0507162  
H174     H      0.932990000000     0.424100000000     0.307450000000     0.0512404  
H175     H      0.069330000000     0.429280000000     0.348350000000     0.0343465  
H176     H      0.969600000000     0.394270000000     0.137710000000     0.0284059  
H177     H      0.130060000000     0.534840000000     0.704520000000     0.042917   
H178     H      0.082340000000     0.610650000000     0.837170000000     0.0281467  
H179     H      0.984870000000     0.528670000000     0.667610000000     0.0307113  
H180     H      0.992880000000     0.600660000000     0.710030000000     0.0431577  
H181     H      0.021780000000     0.619700000000     0.779810000000     0.04284    
H182     H      0.100670000000     0.492590000000     0.758300000000     0.0433168  
H183     H      0.112600000000     0.509630000000     0.623300000000     0.0357796  
H184     H      0.026300000000     0.607530000000     0.864790000000     0.0351674  
H185     H      0.036920000000     0.621760000000     0.671280000000     0.0496801  
H186     H      0.044200000000     0.486290000000     0.782230000000     0.0529736  
H187     H      0.979410000000     0.576330000000     0.628050000000     0.0344244  
H188     H      0.128840000000     0.532900000000     0.826440000000     0.0263151  
H189     H      0.116050000000     0.581380000000     0.667350000000     0.0512702  
H190     H      0.992770000000     0.567180000000     0.797380000000     0.0513714  
H191     H      0.101250000000     0.480390000000     0.844300000000     0.0350154  
H192     H      0.072960000000     0.484720000000     0.664180000000     0.027146   
H193     H      0.018190000000     0.059150000000     0.248040000000     0.0437738  
H194     H      0.943680000000     0.989970000000     0.344520000000     0.0307989  
H195     H      0.018210000000     0.937630000000     0.161740000000     0.0306243  
H196     H      0.949190000000     0.930200000000     0.210270000000     0.042967   
H197     H      0.943380000000     0.928260000000     0.287130000000     0.042841   
H198     H      0.072400000000     0.006070000000     0.269820000000     0.044123   
H199     H      0.033860000000     0.073400000000     0.163250000000     0.0359581  
H200     H      0.952210000000     0.935770000000     0.373580000000     0.033219   
H201     H      0.926330000000     0.984570000000     0.190870000000     0.0499564  
H202     H      0.072610000000     0.951780000000     0.298470000000     0.051353   
H203     H      0.967370000000     0.946470000000     0.126640000000     0.0331463  
H204     H      0.028750000000     0.041440000000     0.334050000000     0.0266536  
H205     H      0.967470000000     0.059490000000     0.212810000000     0.0509855  
H206     H      0.997390000000     0.905070000000     0.308110000000     0.0500127  
H207     H      0.078580000000     0.012090000000     0.356510000000     0.0359193  
H208     H      0.064000000000     0.024110000000     0.185250000000     0.0268612  
H209     H      0.108060000000     0.991520000000     0.781570000000     0.0433213  
H210     H      0.988030000000     0.015440000000     0.695050000000     0.0297839  
H211     H      0.101820000000     0.120290000000     0.842320000000     0.0278472  
H212     H      0.035610000000     0.123890000000     0.790320000000     0.0429758  
H213     H      0.997290000000     0.092150000000     0.728310000000     0.0432817  
H214     H      0.134130000000     0.025410000000     0.720470000000     0.0430898  
H215     H      0.117290000000     0.992530000000     0.868070000000     0.0343574  
H216     H      0.977620000000     0.058300000000     0.650950000000     0.0346781  
H217     H      0.006940000000     0.076160000000     0.818900000000     0.0513159  
H218     H      0.118050000000     0.067240000000     0.678640000000     0.0526607  
H219     H      0.048930000000     0.124660000000     0.875520000000     0.0352943  
H220     H      0.072280000000     0.972620000000     0.691550000000     0.0264577  
H221     H      0.054190000000     0.991300000000     0.811600000000     0.0534856  
H222     H      0.037640000000     0.109310000000     0.683830000000     0.050099   
H223     H      0.110340000000     0.989500000000     0.645280000000     0.0351897  
H224     H      0.143960000000     0.040750000000     0.839520000000     0.0258803  
H225     H      0.959460000000     0.724920000000     0.461580000000     0.0423288  
H226     H      0.085070000000     0.821150000000     0.570900000000     0.0255321  
H227     H      0.075350000000     0.672180000000     0.399740000000     0.0259361  
H228     H      0.106070000000     0.723740000000     0.453120000000     0.0423913  
H229     H      0.110350000000     0.775900000000     0.508750000000     0.0423431  
H230     H      0.962640000000     0.772200000000     0.522480000000     0.0423902  
H231     H      0.956770000000     0.642200000000     0.439480000000     0.0344561  
H232     H      0.110650000000     0.859980000000     0.529710000000     0.0351247  
H233     H      0.092760000000     0.688640000000     0.503090000000     0.0504264  
H234     H      0.976160000000     0.812040000000     0.476220000000     0.0513951  
H235     H      0.105930000000     0.636600000000     0.440620000000     0.0352672  
H236     H      0.999990000000     0.816480000000     0.580070000000     0.0260559  
H237     H      0.978450000000     0.686790000000     0.507510000000     0.0525863  
H238     H      0.086770000000     0.813510000000     0.464820000000     0.0515521  
H239     H      0.962390000000     0.854040000000     0.547680000000     0.0352959  
H240     H      0.990540000000     0.678510000000     0.401970000000     0.0251461  
H241     H      0.943620000000     0.281600000000     0.535770000000     0.0421424  
H242     H      0.056330000000     0.172880000000     0.430020000000     0.0255347  
H243     H      0.057750000000     0.336000000000     0.583020000000     0.025152   
H244     H      0.090690000000     0.281640000000     0.532420000000     0.0422055  
H245     H      0.090640000000     0.224400000000     0.482940000000     0.0422457  
H246     H      0.941930000000     0.221020000000     0.490370000000     0.0422116  
H247     H      0.942500000000     0.369290000000     0.534860000000     0.0352361  
H248     H      0.092310000000     0.140590000000     0.469180000000     0.0350157  
H249     H      0.072310000000     0.311520000000     0.480420000000     0.0520256  
H250     H      0.964690000000     0.190400000000     0.539870000000     0.0503235  
H251     H      0.091790000000     0.366460000000     0.540830000000     0.0346351  
H252     H      0.969820000000     0.168110000000     0.435940000000     0.02623    
H253     H      0.958900000000     0.308830000000     0.481540000000     0.0500681  
H254     H      0.074040000000     0.191480000000     0.533520000000     0.0512308  
H255     H      0.943300000000     0.135150000000     0.481540000000     0.0355002  
H256     H      0.971920000000     0.340870000000     0.581860000000     0.0262761  
N1       N      0.893740000000     0.491330000000     0.943520000000    -0.175218   
N2       N      0.672230000000     0.473330000000     0.048680000000    -0.174843   
N3       N      0.159760000000     0.514220000000     0.029640000000    -0.173997   
N4       N      0.394140000000     0.506150000000     0.067080000000    -0.174166   
N5       N      0.685710000000     0.020980000000     0.066020000000    -0.17538    
N6       N      0.909320000000     0.037790000000     0.966250000000    -0.175523   
N7       N      0.175900000000     0.026950000000     0.051690000000    -0.175283   
N8       N      0.415210000000     0.024620000000     0.993230000000    -0.175436   
N9       N      0.503660000000     0.508390000000     0.421810000000    -0.174805   
N10      N      0.543210000000     0.466070000000     0.193600000000    -0.17529    
N11      N      0.473980000000     0.579020000000     0.691250000000    -0.175315   
N12      N      0.525580000000     0.513340000000     0.918130000000    -0.17506    
N13      N      0.518640000000     0.023130000000     0.167610000000    -0.174662   
N14      N      0.472820000000     0.012380000000     0.402890000000    -0.174907   
N15      N      0.580180000000     0.022480000000     0.894380000000    -0.175377   
N16      N      0.498240000000     0.082970000000     0.672570000000    -0.175492   
N17      N      0.482820000000     0.914960000000     0.575940000000    -0.174823   
N18      N      0.481400000000     0.676900000000     0.516550000000    -0.174775   
N19      N      0.488390000000     0.183370000000     0.501360000000    -0.174954   
N20      N      0.496360000000     0.409740000000     0.594270000000    -0.17524    
N21      N      0.006070000000     0.468620000000     0.353200000000    -0.174242   
N22      N      0.988130000000     0.461650000000     0.116300000000    -0.174343   
N23      N      0.063930000000     0.543350000000     0.859000000000    -0.174635   
N24      N      0.042580000000     0.536940000000     0.622620000000    -0.174244   
N25      N      0.012070000000     0.979920000000     0.369920000000    -0.174844   
N26      N      0.008130000000     0.007000000000     0.140690000000    -0.174867   
N27      N      0.041830000000     0.020460000000     0.645040000000    -0.17505    
N28      N      0.082710000000     0.058130000000     0.875960000000    -0.175368   
N29      N      0.035880000000     0.861710000000     0.535030000000    -0.175444   
N30      N      0.031210000000     0.635070000000     0.444740000000    -0.175632   
N31      N      0.018200000000     0.133440000000     0.478520000000    -0.175376   
N32      N      0.017300000000     0.371760000000     0.533490000000    -0.17544    
O1       O      0.983740000000     0.064410000000     0.496960000000    -0.39966    
O2       O      0.993100000000     0.928030000000     0.526930000000    -0.400041   
O3       O      0.995640000000     0.011930000000     0.580610000000    -0.398165   
O4       O      0.981210000000     0.980960000000     0.443460000000    -0.398137   
O5       O      0.057630000000     0.990260000000     0.434270000000    -0.402397   
O6       O      0.072710000000     0.008610000000     0.572770000000    -0.402273   
O7       O      0.069440000000     0.930340000000     0.513920000000    -0.401392   
O8       O      0.061020000000     0.068280000000     0.493060000000    -0.401735   
O9       O      0.981850000000     0.439780000000     0.512750000000    -0.399167   
O10      O      0.989700000000     0.573190000000     0.471350000000    -0.402289   
O11      O      0.976690000000     0.488250000000     0.424690000000    -0.399217   
O12      O      0.995160000000     0.526680000000     0.559240000000    -0.398322   
O13      O      0.071730000000     0.517840000000     0.550980000000    -0.400265   
O14      O      0.053250000000     0.479150000000     0.416680000000    -0.399012   
O15      O      0.066430000000     0.566240000000     0.463070000000    -0.399404   
O16      O      0.058630000000     0.432910000000     0.504860000000    -0.402166   
O17      O      0.448880000000     0.118530000000     0.524460000000    -0.399816   
O18      O      0.445430000000     0.982290000000     0.556670000000    -0.399592   
O19      O      0.453550000000     0.065130000000     0.609210000000    -0.400262   
O20      O      0.440900000000     0.035490000000     0.472020000000    -0.400305   
O21      O      0.517690000000     0.025970000000     0.467390000000    -0.398578   
O22      O      0.530620000000     0.068540000000     0.601300000000    -0.399392   
O23      O      0.522860000000     0.980440000000     0.555430000000    -0.39918    
O24      O      0.525500000000     0.114290000000     0.513770000000    -0.398667   
O25      O      0.454180000000     0.473200000000     0.572720000000    -0.400858   
O26      O      0.446260000000     0.607770000000     0.534310000000    -0.397897   
O27      O      0.457640000000     0.521100000000     0.485770000000    -0.399129   
O28      O      0.442940000000     0.557830000000     0.621120000000    -0.400645   
O29      O      0.519770000000     0.566170000000     0.627270000000    -0.3998     
O30      O      0.534440000000     0.529350000000     0.492120000000    -0.401732   
O31      O      0.523250000000     0.613980000000     0.540330000000    -0.401129   
O32      O      0.531210000000     0.479400000000     0.578460000000    -0.398826   
O33      O      0.974420000000     0.072330000000     0.996280000000    -0.401003   
O34      O      0.110360000000     0.068020000000     0.032940000000    -0.401004   
O35      O      0.059650000000     0.083030000000     0.947790000000    -0.402124   
O36      O      0.025340000000     0.057180000000     0.081670000000    -0.401825   
O37      O      0.020370000000     0.981950000000     0.066060000000    -0.398824   
O38      O      0.067360000000     0.007460000000     0.935300000000    -0.398638   
O39      O      0.110140000000     0.991640000000     0.023920000000    -0.40007    
O40      O      0.977040000000     0.997640000000     0.977930000000    -0.399888   
O41      O      0.953230000000     0.533140000000     0.975250000000    -0.401435   
O42      O      0.086870000000     0.545260000000     0.018630000000    -0.397753   
O43      O      0.037940000000     0.559430000000     0.932510000000    -0.400419   
O44      O      0.999720000000     0.518550000000     0.061950000000    -0.398122   
O45      O      0.014640000000     0.445430000000     0.042960000000    -0.399583   
O46      O      0.052880000000     0.486340000000     0.913400000000    -0.397934   
O47      O      0.099510000000     0.471680000000     0.000000000000    -0.400862   
O48      O      0.965860000000     0.459550000000     0.956520000000    -0.397702   
O49      O      0.482960000000     0.062260000000     0.011400000000    -0.40055    
O50      O      0.618190000000     0.060330000000     0.050970000000    -0.400137   
O51      O      0.570570000000     0.061080000000     0.963370000000    -0.398778   
O52      O      0.530420000000     0.061460000000     0.098860000000    -0.398701   
O53      O      0.535790000000     0.984710000000     0.100120000000    -0.400498   
O54      O      0.563240000000     0.984480000000     0.962000000000    -0.401731   
O55      O      0.618450000000     0.983600000000     0.045690000000    -0.400858   
O56      O      0.480780000000     0.985510000000     0.015770000000    -0.400719   
O57      O      0.468420000000     0.535830000000     0.068050000000    -0.398369   
O58      O      0.607900000000     0.518930000000     0.057240000000    -0.402323   
O59      O      0.535270000000     0.539190000000     0.992850000000    -0.400209   
O60      O      0.543530000000     0.515360000000     0.131470000000    -0.40105    
O61      O      0.530690000000     0.440410000000     0.119280000000    -0.399472   
O62      O      0.523450000000     0.464130000000     0.980430000000    -0.400152   
O63      O      0.598020000000     0.443670000000     0.044740000000    -0.3971     
O64      O      0.458250000000     0.460790000000     0.054650000000    -0.400894   


