data_structure

_audit_creation_method RASPA-1.0
_audit_creation_date 2023-5-22
_audit_author_name 'Poobodin Mano'

_cell_length_a    39.7607
_cell_length_b    41.6392
_cell_length_c    28.5545
_cell_angle_alpha 89.9999
_cell_angle_beta  90.0001
_cell_angle_gamma 90
_cell_volume      47274.9

_symmetry_cell_setting          triclinic
_symmetry_space_group_name_Hall 'P 1'
_symmetry_space_group_name_H-M  'P 1'
_symmetry_Int_Tables_number     1

_symmetry_equiv_pos_as_xyz 'x,y,z'

loop_
_atom_site_label
_atom_site_type_symbol
_atom_site_fract_x
_atom_site_fract_y
_atom_site_fract_z
_atom_site_charge
C1       C      0.424780000000     0.044260000000     0.017680000000     0.400875   
C2       C      0.466370000000     0.040070000000     0.195120000000     0.402554   
C3       C      0.382100000000     0.040250000000     0.135490000000     0.402551   
C4       C      0.509210000000     0.043740000000     0.076950000000     0.403197   
C5       C      0.403210000000     0.049770000000     0.506510000000     0.401772   
C6       C      0.443480000000     0.052000000000     0.684550000000     0.401059   
C7       C      0.486120000000     0.048640000000     0.565470000000     0.40209    
C8       C      0.358840000000     0.053750000000     0.623010000000     0.401866   
C9       C      0.064050000000     0.713200000000     0.253120000000     0.402763   
C10      C      0.053660000000     0.683910000000     0.072040000000     0.401485   
C11      C      0.072760000000     0.759450000000     0.141250000000     0.401597   
C12      C      0.045330000000     0.637880000000     0.184520000000     0.403366   
C13      C      0.059980000000     0.663080000000     0.569310000000     0.402842   
C14      C      0.055590000000     0.710290000000     0.742620000000     0.401933   
C15      C      0.055430000000     0.627020000000     0.689310000000     0.402922   
C16      C      0.059900000000     0.746090000000     0.621460000000     0.401085   
C17      C      0.731400000000     0.045480000000     0.950070000000     0.400841   
C18      C      0.739870000000     0.053900000000     0.764450000000     0.404186   
C19      C      0.668520000000     0.045870000000     0.851800000000     0.403778   
C20      C      0.801790000000     0.054030000000     0.863330000000     0.402176   
C21      C      0.675690000000     0.054110000000     0.454240000000     0.403693   
C22      C      0.717330000000     0.044540000000     0.277700000000     0.40041    
C23      C      0.633660000000     0.052830000000     0.339750000000     0.404447   
C24      C      0.761230000000     0.045560000000     0.395430000000     0.399567   
C25      C      0.086680000000     0.100210000000     0.982700000000     0.400596   
C26      C      0.088590000000     0.977550000000     0.035150000000     0.401459   
C27      C      0.151200000000     0.045210000000     0.040340000000     0.40146    
C28      C      0.025780000000     0.032290000000     0.978230000000     0.402811   
C29      C      0.055700000000     0.089290000000     0.509180000000     0.400626   
C30      C      0.067660000000     0.962240000000     0.520160000000     0.401067   
C31      C      0.124420000000     0.032040000000     0.542150000000     0.399735   
C32      C      0.997170000000     0.019500000000     0.486400000000     0.399685   
C33      C      0.052810000000     0.360270000000     0.086100000000     0.402074   
C34      C      0.047500000000     0.401170000000     0.909410000000     0.402828   
C35      C      0.045270000000     0.441020000000     0.027630000000     0.400909   
C36      C      0.055580000000     0.320190000000     0.967880000000     0.400013   
C37      C      0.041460000000     0.396780000000     0.410390000000     0.402378   
C38      C      0.040890000000     0.358710000000     0.588530000000     0.402503   
C39      C      0.045950000000     0.438630000000     0.527320000000     0.401899   
C40      C      0.035780000000     0.316700000000     0.472440000000     0.401613   
C41      C      0.072000000000     0.343420000000     0.660580000000     0.0135304  
C42      C      0.014140000000     0.416590000000     0.839360000000     0.0139573  
C43      C      0.076170000000     0.417350000000     0.835820000000     0.013745   
C44      C      0.011240000000     0.392660000000     0.798900000000    -0.0995474  
C45      C      0.075300000000     0.368600000000     0.699300000000    -0.0994798  
C46      C      0.077450000000     0.392900000000     0.795900000000    -0.099471   
C47      C      0.042760000000     0.374160000000     0.726970000000     0.0164901  
C48      C      0.043750000000     0.388090000000     0.770730000000     0.0166607  
C49      C      0.009920000000     0.345480000000     0.661580000000     0.0138328  
C50      C      0.009180000000     0.370290000000     0.701110000000    -0.0995435  
C51      C      0.073040000000     0.414570000000     0.340000000000     0.0140247  
C52      C      0.023590000000     0.340820000000     0.157500000000     0.0139992  
C53      C      0.085190000000     0.348560000000     0.158660000000     0.0131139  
C54      C      0.017660000000     0.364580000000     0.197420000000    -0.0996607  
C55      C      0.078470000000     0.391230000000     0.299370000000    -0.0997292  
C56      C      0.083330000000     0.371760000000     0.200280000000    -0.0994158  
C57      C      0.046780000000     0.384670000000     0.270400000000     0.0169143  
C58      C      0.049360000000     0.372080000000     0.225870000000     0.0167384  
C59      C      0.011160000000     0.409480000000     0.336510000000     0.0133169  
C60      C      0.012660000000     0.385800000000     0.295490000000    -0.0996484  
C61      C      0.061340000000     0.267040000000     0.439830000000     0.012718   
C62      C      0.034040000000     0.140860000000     0.540350000000     0.0113432  
C63      C      0.076590000000     0.139950000000     0.474780000000     0.0125722  
C64      C      0.013780000000     0.166990000000     0.514680000000    -0.101517   
C65      C      0.068690000000     0.237430000000     0.469810000000    -0.101018   
C66      C      0.056630000000     0.165290000000     0.448180000000    -0.101614   
C67      C      0.036720000000     0.218540000000     0.480210000000     0.0175816  
C68      C      0.036630000000     0.185790000000     0.482040000000     0.0183006  
C69      C      0.001250000000     0.267320000000     0.466000000000     0.0122002  
C70      C      0.007180000000     0.238220000000     0.497900000000    -0.101153   
C71      C      0.062440000000     0.153890000000     0.995280000000     0.0126101  
C72      C      0.091900000000     0.275170000000     0.942970000000     0.010845   
C73      C      0.029100000000     0.267010000000     0.958460000000     0.0110987  
C74      C      0.090250000000     0.249480000000     0.904470000000    -0.102154   
C75      C      0.044330000000     0.177440000000     0.962710000000    -0.101682   
C76      C      0.028630000000     0.241420000000     0.920110000000    -0.10194    
C77      C      0.069430000000     0.195530000000     0.932590000000     0.017858   
C78      C      0.062850000000     0.225870000000     0.916860000000     0.0187732  
C79      C      0.099010000000     0.142090000000     0.924080000000     0.0125551  
C80      C      0.102590000000     0.178850000000     0.922050000000    -0.102148   
C81      C      0.806190000000     0.014240000000     0.433470000000     0.0123805  
C82      C      0.954790000000     0.022850000000     0.422870000000     0.0117204  
C83      C      0.937760000000     0.005090000000     0.503420000000     0.0118221  
C84      C      0.925640000000     0.046930000000     0.420890000000    -0.100876   
C85      C      0.836340000000     0.021220000000     0.465630000000    -0.10185    
C86      C      0.907350000000     0.027670000000     0.502520000000    -0.100866   
C87      C      0.864110000000     0.038700000000     0.439440000000     0.0169146  
C88      C      0.897100000000     0.036240000000     0.452660000000     0.0172295  
C89      C      0.817170000000     0.070690000000     0.402740000000     0.0125357  
C90      C      0.853590000000     0.058880000000     0.397570000000    -0.101871   
C91      C      0.744890000000     0.027120000000     0.687290000000     0.0143841  
C92      C      0.658750000000     0.087440000000     0.522460000000     0.014424   
C93      C      0.654080000000     0.028560000000     0.526610000000     0.0150127  
C94      C      0.683040000000     0.089020000000     0.564050000000    -0.0994556  
C95      C      0.713410000000     0.025240000000     0.656910000000    -0.100304   
C96      C      0.679910000000     0.025420000000     0.565780000000    -0.0995299  
C97      C      0.705890000000     0.056920000000     0.631770000000     0.0171922  
C98      C      0.688360000000     0.057200000000     0.590250000000     0.0174415  
C99      C      0.742860000000     0.086470000000     0.691620000000     0.0135512  
C100     C      0.712360000000     0.088130000000     0.658930000000    -0.100126   
C101     C      0.730260000000     0.072730000000     0.026930000000     0.0112406  
C102     C      0.724960000000     0.010350000000     0.208100000000     0.0105307  
C103     C      0.728220000000     0.072080000000     0.202990000000     0.0111837  
C104     C      0.747640000000     0.008630000000     0.164740000000    -0.102406   
C105     C      0.709480000000     0.068240000000     0.071490000000    -0.102253   
C106     C      0.751340000000     0.068050000000     0.160700000000    -0.102193   
C107     C      0.721070000000     0.037990000000     0.095930000000     0.0209454  
C108     C      0.741190000000     0.037960000000     0.134950000000     0.0207447  
C109     C      0.735110000000     0.011590000000     0.020920000000     0.0107667  
C110     C      0.714540000000     0.008640000000     0.066110000000    -0.102571   
C111     C      0.851850000000     0.086470000000     0.882410000000     0.0131944  
C112     C      0.985670000000     0.015830000000     0.915900000000     0.0121719  
C113     C      0.964890000000     0.042070000000     0.989500000000     0.0118215  
C114     C      0.967260000000     0.040770000000     0.886040000000    -0.100988   
C115     C      0.880340000000     0.079470000000     0.916870000000    -0.101947   
C116     C      0.947000000000     0.068240000000     0.961250000000    -0.100764   
C117     C      0.906010000000     0.056680000000     0.895800000000     0.0178293  
C118     C      0.937940000000     0.055100000000     0.913190000000     0.0170193  
C119     C      0.857060000000     0.027680000000     0.858890000000     0.0126605  
C120     C      0.894600000000     0.036030000000     0.854880000000    -0.102307   
C121     C      0.018480000000     0.489980000000     0.549540000000     0.0130437  
C122     C      0.084290000000     0.575780000000     0.707950000000     0.0140077  
C123     C      0.022570000000     0.578110000000     0.707980000000     0.0144449  
C124     C      0.085720000000     0.552790000000     0.666070000000    -0.099054   
C125     C      0.017050000000     0.500920000000     0.600620000000    -0.0999353  
C126     C      0.019050000000     0.555930000000     0.665550000000    -0.0991003  
C127     C      0.050510000000     0.514980000000     0.617440000000     0.0169413  
C128     C      0.051640000000     0.538990000000     0.650620000000     0.0171051  
C129     C      0.080750000000     0.485440000000     0.551350000000     0.0125821  
C130     C      0.082260000000     0.496890000000     0.602310000000    -0.0999438  
C131     C      0.088070000000     0.798850000000     0.618270000000     0.0121799  
C132     C      0.068040000000     0.908210000000     0.484450000000     0.0129376  
C133     C      0.091440000000     0.917580000000     0.565460000000     0.0128288  
C134     C      0.050380000000     0.877430000000     0.501200000000    -0.102183   
C135     C      0.102000000000     0.817000000000     0.576130000000    -0.101527   
C136     C      0.075650000000     0.886420000000     0.582880000000    -0.101337   
C137     C      0.073510000000     0.831190000000     0.547830000000     0.018276   
C138     C      0.068940000000     0.863400000000     0.542790000000     0.0193284  
C139     C      0.033580000000     0.789160000000     0.574280000000     0.0114783  
C140     C      0.047740000000     0.806980000000     0.531320000000    -0.102094   
C141     C      0.009710000000     0.484730000000     0.057620000000     0.0124009  
C142     C      0.064900000000     0.583100000000     0.204510000000     0.0153417  
C143     C      0.005090000000     0.592490000000     0.187250000000     0.0133083  
C144     C      0.070490000000     0.562370000000     0.161170000000    -0.0991743  
C145     C      0.010660000000     0.520680000000     0.069630000000    -0.102254   
C146     C      0.005730000000     0.571420000000     0.143130000000    -0.0990128  
C147     C      0.039980000000     0.528660000000     0.102100000000     0.0178313  
C148     C      0.038060000000     0.551740000000     0.136450000000     0.0167603  
C149     C      0.072570000000     0.492910000000     0.046020000000     0.0128525  
C150     C      0.073010000000     0.511260000000     0.092360000000    -0.100934   
C151     C      0.018430000000     0.675250000000     0.001210000000     0.0134645  
C152     C      0.085390000000     0.728390000000     0.814260000000     0.0142543  
C153     C      0.023320000000     0.730570000000     0.811260000000     0.0128893  
C154     C      0.085850000000     0.706300000000     0.856870000000    -0.0998257  
C155     C      0.019270000000     0.697460000000     0.958440000000    -0.0998415  
C156     C      0.019870000000     0.710850000000     0.856470000000    -0.0994251  
C157     C      0.051820000000     0.695550000000     0.929830000000     0.016883   
C158     C      0.052650000000     0.705990000000     0.884000000000     0.0168835  
C159     C      0.079840000000     0.665650000000     0.997720000000     0.013328   
C160     C      0.084480000000     0.688550000000     0.956390000000    -0.0997786  
C161     C      0.030740000000     0.646880000000     0.496370000000     0.0141583  
C162     C      0.098620000000     0.720410000000     0.324910000000     0.013618   
C163     C      0.037030000000     0.727850000000     0.328470000000     0.0141099  
C164     C      0.098120000000     0.694340000000     0.362770000000    -0.0997863  
C165     C      0.030070000000     0.672490000000     0.458120000000    -0.0993605  
C166     C      0.032370000000     0.701110000000     0.364510000000    -0.100031   
C167     C      0.063750000000     0.676650000000     0.432670000000     0.0166888  
C168     C      0.064940000000     0.692080000000     0.390030000000     0.0168743  
C169     C      0.092670000000     0.645380000000     0.499760000000     0.0137424  
C170     C      0.096390000000     0.669440000000     0.459460000000    -0.0993011  
C171     C      0.103990000000     0.921070000000     0.018960000000     0.0115926  
C172     C      0.056630000000     0.816740000000     0.145580000000     0.0119951  
C173     C      0.113780000000     0.800330000000     0.115090000000     0.0118483  
C174     C      0.053750000000     0.841870000000     0.106910000000    -0.10154    
C175     C      0.121550000000     0.895770000000     0.049540000000    -0.102185   
C176     C      0.111310000000     0.825310000000     0.075720000000    -0.102139   
C177     C      0.097220000000     0.883920000000     0.086480000000     0.018799   
C178     C      0.088320000000     0.852430000000     0.090650000000     0.0189565  
C179     C      0.065140000000     0.935220000000     0.086280000000     0.0120107  
C180     C      0.082630000000     0.910250000000     0.116800000000    -0.10182    
C181     C      0.578390000000     0.026340000000     0.332560000000     0.0146578  
C182     C      0.535850000000     0.076890000000     0.533310000000     0.0135656  
C183     C      0.531610000000     0.017910000000     0.526520000000     0.0128684  
C184     C      0.533730000000     0.081750000000     0.480250000000    -0.0993026  
C185     C      0.564920000000     0.021720000000     0.382380000000    -0.0987823  
C186     C      0.529670000000     0.019320000000     0.472910000000    -0.0991992  
C187     C      0.556690000000     0.052880000000     0.408870000000     0.017963   
C188     C      0.542720000000     0.051220000000     0.452940000000     0.016581   
C189     C      0.581560000000     0.084850000000     0.339050000000     0.0142678  
C190     C      0.568630000000     0.085460000000     0.389620000000    -0.0992364  
C191     C      0.182940000000     0.046180000000     0.523060000000     0.0131288  
C192     C      0.306950000000     0.027730000000     0.653600000000     0.0130903  
C193     C      0.305330000000     0.084050000000     0.624430000000     0.0126904  
C194     C      0.278940000000     0.017600000000     0.619760000000    -0.100519   
C195     C      0.211450000000     0.063950000000     0.548460000000    -0.102279   
C196     C      0.279650000000     0.075700000000     0.586410000000    -0.100522   
C197     C      0.226510000000     0.042970000000     0.586670000000     0.0172645  
C198     C      0.259320000000     0.046170000000     0.600120000000     0.0169226  
C199     C      0.166400000000     0.028640000000     0.605350000000     0.0127674  
C200     C      0.203420000000     0.018350000000     0.609200000000    -0.10205    
C201     C      0.616490000000     0.013550000000     0.858970000000     0.0138555  
C202     C      0.558150000000     0.074520000000     0.047040000000     0.0136549  
C203     C      0.560350000000     0.015260000000     0.049410000000     0.0138698  
C204     C      0.562060000000     0.075460000000     0.993720000000    -0.099763   
C205     C      0.604720000000     0.011850000000     0.910020000000    -0.0989878  
C206     C      0.564420000000     0.012480000000     0.996290000000    -0.0998022  
C207     C      0.591450000000     0.043660000000     0.930200000000     0.0169341  
C208     C      0.575470000000     0.043950000000     0.972980000000     0.0166679  
C209     C      0.612900000000     0.072370000000     0.856040000000     0.0147932  
C210     C      0.601560000000     0.075500000000     0.907000000000    -0.0992125  
C211     C      0.459950000000     0.082180000000     0.756210000000     0.0128574  
C212     C      0.407980000000     0.016200000000     0.944530000000     0.0131198  
C213     C      0.406200000000     0.075580000000     0.948160000000     0.0127143  
C214     C      0.430170000000     0.016300000000     0.900760000000    -0.0995186  
C215     C      0.439350000000     0.081960000000     0.801650000000    -0.0997241  
C216     C      0.427880000000     0.079110000000     0.904080000000    -0.0994645  
C217     C      0.439570000000     0.049880000000     0.828010000000     0.0168002  
C218     C      0.430530000000     0.048440000000     0.874650000000     0.0164051  
C219     C      0.464020000000     0.022880000000     0.754830000000     0.0135988  
C220     C      0.442730000000     0.019090000000     0.799030000000    -0.099774   
C221     C      0.483660000000     0.068260000000     0.267780000000     0.0143661  
C222     C      0.390370000000     0.018890000000     0.434300000000     0.0130157  
C223     C      0.394550000000     0.077980000000     0.430980000000     0.0133576  
C224     C      0.419770000000     0.014220000000     0.400270000000    -0.0988508  
C225     C      0.456550000000     0.073200000000     0.304970000000    -0.099526   
C226     C      0.424540000000     0.077140000000     0.397440000000    -0.0988926  
C227     C      0.446880000000     0.042560000000     0.331500000000     0.0171391  
C228     C      0.429170000000     0.044650000000     0.372900000000     0.0157753  
C229     C      0.477640000000     0.009310000000     0.268100000000     0.0136567  
C230     C      0.450850000000     0.010060000000     0.306720000000    -0.0996843  
C231     C      0.330030000000     0.067840000000     0.162450000000     0.0128798  
C232     C      0.211060000000     0.031970000000     0.030250000000     0.0132324  
C233     C      0.190560000000     0.062440000000     0.102130000000     0.0125658  
C234     C      0.237570000000     0.018290000000     0.063570000000    -0.10215    
C235     C      0.302040000000     0.073720000000     0.126480000000    -0.100249   
C236     C      0.227730000000     0.072250000000     0.106700000000    -0.102107   
C237     C      0.283250000000     0.043020000000     0.112750000000     0.0164916  
C238     C      0.251150000000     0.044390000000     0.095630000000     0.0173963  
C239     C      0.329700000000     0.009200000000     0.147240000000     0.013461   
C240     C      0.303930000000     0.012330000000     0.107870000000    -0.100026   
Cu1      Cu     0.446190000000     0.012500000000     0.104670000000     0.842169   
Cu2      Cu     0.445200000000     0.071740000000     0.108100000000     0.837421   
Cu3      Cu     0.423880000000     0.080620000000     0.594340000000     0.841533   
Cu4      Cu     0.421780000000     0.021410000000     0.596970000000     0.836504   
Cu5      Cu     0.089250000000     0.692290000000     0.161410000000     0.840586   
Cu6      Cu     0.028630000000     0.704970000000     0.163780000000     0.839934   
Cu7      Cu     0.088710000000     0.686150000000     0.657980000000     0.840676   
Cu8      Cu     0.026690000000     0.687250000000     0.653820000000     0.838489   
Cu9      Cu     0.733110000000     0.079350000000     0.859840000000     0.842589   
Cu10     Cu     0.737320000000     0.020290000000     0.854480000000     0.843174   
Cu11     Cu     0.699960000000     0.078740000000     0.364170000000     0.840796   
Cu12     Cu     0.695190000000     0.019690000000     0.368910000000     0.841162   
Cu13     Cu     0.077500000000     0.046770000000     0.048050000000     0.845133   
Cu14     Cu     0.099450000000     0.031140000000     0.970360000000     0.83974    
Cu15     Cu     0.051560000000     0.026320000000     0.555570000000     0.836641   
Cu16     Cu     0.070170000000     0.024980000000     0.473130000000     0.839476   
Cu17     Cu     0.081230000000     0.383160000000     0.996900000000     0.839928   
Cu18     Cu     0.019370000000     0.378120000000     0.998470000000     0.840392   
Cu19     Cu     0.010080000000     0.379790000000     0.500400000000     0.841144   
Cu20     Cu     0.072000000000     0.375660000000     0.498560000000     0.838342   
H1       H      0.095880000000     0.359990000000     0.722390000000     0.0420732  
H2       H      0.013630000000     0.441300000000     0.824500000000     0.0253355  
H3       H      0.009380000000     0.321100000000     0.677560000000     0.0251056  
H4       H      0.988920000000     0.362280000000     0.725150000000     0.042068   
H5       H      0.990610000000     0.401830000000     0.776380000000     0.0419864  
H6       H      0.097050000000     0.401750000000     0.771360000000     0.0419624  
H7       H      0.094800000000     0.344100000000     0.638070000000     0.0348435  
H8       H      0.991890000000     0.414170000000     0.862660000000     0.0347412  
H9       H      0.001980000000     0.393980000000     0.686240000000     0.0510752  
H10      H      0.085730000000     0.369360000000     0.810230000000     0.0512611  
H11      H      0.986870000000     0.347980000000     0.639860000000     0.0345145  
H12      H      0.074970000000     0.441850000000     0.820290000000     0.0255996  
H13      H      0.083140000000     0.391790000000     0.683380000000     0.0508466  
H14      H      0.003580000000     0.368940000000     0.813250000000     0.0515215  
H15      H      0.099770000000     0.415820000000     0.856560000000     0.0350126  
H16      H      0.070910000000     0.319260000000     0.677200000000     0.0255079  
H17      H      0.098640000000     0.402090000000     0.277650000000     0.0421397  
H18      H      0.027230000000     0.316520000000     0.172930000000     0.02579    
H19      H      0.009450000000     0.434240000000     0.322030000000     0.0262926  
H20      H      0.992300000000     0.393220000000     0.271180000000     0.0424341  
H21      H      0.997840000000     0.353620000000     0.219650000000     0.042428   
H22      H      0.104010000000     0.364480000000     0.224130000000     0.0422199  
H23      H      0.095440000000     0.414200000000     0.363290000000     0.0349381  
H24      H      0.000810000000     0.339760000000     0.135000000000     0.0350538  
H25      H      0.006840000000     0.361320000000     0.308730000000     0.0512156  
H26      H      0.088560000000     0.396490000000     0.187520000000     0.0506404  
H27      H      0.987930000000     0.404960000000     0.357130000000     0.0351918  
H28      H      0.088470000000     0.323780000000     0.172570000000     0.0260362  
H29      H      0.087800000000     0.368020000000     0.313550000000     0.0518765  
H30      H      0.007780000000     0.387410000000     0.182640000000     0.0520905  
H31      H      0.107760000000     0.354260000000     0.137260000000     0.035082   
H32      H      0.071000000000     0.439260000000     0.325330000000     0.0255821  
H33      H      0.088840000000     0.223340000000     0.452840000000     0.043006   
H34      H      0.051120000000     0.152690000000     0.565930000000     0.0290939  
H35      H      0.992400000000     0.258560000000     0.431310000000     0.0272295  
H36      H      0.983510000000     0.224040000000     0.497970000000     0.0426724  
H37      H      0.002160000000     0.182410000000     0.541960000000     0.0429114  
H38      H      0.073580000000     0.178880000000     0.424710000000     0.0429424  
H39      H      0.084540000000     0.281780000000     0.436660000000     0.0348031  
H40      H      0.016240000000     0.125470000000     0.560310000000     0.0348612  
H41      H      0.012410000000     0.246450000000     0.534220000000     0.0511641  
H42      H      0.038540000000     0.152850000000     0.424690000000     0.0524942  
H43      H      0.980900000000     0.282280000000     0.481370000000     0.0356884  
H44      H      0.096390000000     0.152320000000     0.495580000000     0.0265393  
H45      H      0.079230000000     0.245630000000     0.503830000000     0.0531967  
H46      H      0.993310000000     0.155670000000     0.493930000000     0.049395   
H47      H      0.089580000000     0.124110000000     0.449210000000     0.035361   
H48      H      0.054470000000     0.258740000000     0.404060000000     0.0260555  
H49      H      0.026510000000     0.164160000000     0.939810000000     0.0493669  
H50      H      0.102260000000     0.264070000000     0.975340000000     0.0304242  
H51      H      0.083160000000     0.133840000000     0.894310000000     0.0317175  
H52      H      0.111480000000     0.185100000000     0.886280000000     0.0430977  
H53      H      0.115470000000     0.238460000000     0.900650000000     0.0425918  
H54      H      0.007920000000     0.224040000000     0.926160000000     0.042236   
H55      H      0.078700000000     0.167480000000     0.020020000000     0.0312288  
H56      H      0.109910000000     0.294040000000     0.931550000000     0.0353689  
H57      H      0.121780000000     0.186740000000     0.947920000000     0.050041   
H58      H      0.022930000000     0.253270000000     0.886120000000     0.0500511  
H59      H      0.124240000000     0.130950000000     0.919590000000     0.0325736  
H60      H      0.030530000000     0.254900000000     0.993110000000     0.0278371  
H61      H      0.029820000000     0.194090000000     0.985430000000     0.0440399  
H62      H      0.084110000000     0.261140000000     0.870500000000     0.0493438  
H63      H      0.004780000000     0.280160000000     0.957290000000     0.0359564  
H64      H      0.043180000000     0.141060000000     0.016470000000     0.0340017  
H65      H      0.828010000000     0.036080000000     0.495810000000     0.0495217  
H66      H      0.946390000000     0.999930000000     0.406580000000     0.0282026  
H67      H      0.815450000000     0.087380000000     0.433060000000     0.030805   
H68      H      0.869840000000     0.080490000000     0.394230000000     0.0430224  
H69      H      0.917760000000     0.048660000000     0.383670000000     0.0427952  
H70      H      0.886930000000     0.016570000000     0.523360000000     0.042547   
H71      H      0.813770000000     0.996610000000     0.406170000000     0.0317193  
H72      H      0.975920000000     0.032420000000     0.401560000000     0.0359505  
H73      H      0.855920000000     0.044300000000     0.365120000000     0.0500971  
H74      H      0.914270000000     0.050290000000     0.520790000000     0.0516826  
H75      H      0.810200000000     0.084530000000     0.370850000000     0.0332564  
H76      H      0.929330000000     0.981030000000     0.491190000000     0.0266625  
H77      H      0.845440000000     0.997660000000     0.478830000000     0.0434913  
H78      H      0.934590000000     0.070980000000     0.432320000000     0.0503503  
H79      H      0.946550000000     0.002320000000     0.540140000000     0.0355976  
H80      H      0.785890000000     0.002880000000     0.454570000000     0.0325783  
H81      H      0.717940000000     0.005200000000     0.632100000000     0.0426117  
H82      H      0.632600000000     0.089410000000     0.536100000000     0.0239654  
H83      H      0.766030000000     0.088100000000     0.669880000000     0.0259856  
H84      H      0.717180000000     0.108770000000     0.635320000000     0.0424101  
H85      H      0.672860000000     0.107590000000     0.588130000000     0.042428   
H86      H      0.669390000000     0.007870000000     0.591200000000     0.042825   
H87      H      0.747450000000     0.004550000000     0.707730000000     0.0352401  
H88      H      0.663060000000     0.108360000000     0.499040000000     0.0337255  
H89      H      0.689590000000     0.093640000000     0.680030000000     0.0518337  
H90      H      0.703450000000     0.015340000000     0.550740000000     0.0518058  
H91      H      0.742630000000     0.107570000000     0.715450000000     0.0352844  
H92      H      0.628780000000     0.031910000000     0.542630000000     0.0250962  
H93      H      0.691480000000     0.018880000000     0.679220000000     0.0529776  
H94      H      0.707890000000     0.097320000000     0.550920000000     0.0510232  
H95      H      0.653350000000     0.005980000000     0.505890000000     0.0338723  
H96      H      0.767190000000     0.028970000000     0.663870000000     0.0257452  
H97      H      0.710010000000     0.090150000000     0.093360000000     0.0433157  
H98      H      0.698640000000     0.005140000000     0.197330000000     0.0310274  
H99      H      0.762210000000     0.008670000000     0.029590000000     0.0294113  
H100     H      0.720150000000     0.985380000000     0.082800000000     0.0428791  
H101     H      0.744000000000     0.985330000000     0.147090000000     0.0427831  
H102     H      0.751830000000     0.090000000000     0.138880000000     0.0428972  
H103     H      0.720030000000     0.093760000000     0.007630000000     0.0353833  
H104     H      0.732730000000     0.990940000000     0.232580000000     0.0358783  
H105     H      0.687370000000     0.007740000000     0.056910000000     0.0498668  
H106     H      0.777620000000     0.065380000000     0.173520000000     0.0496669  
H107     H      0.727990000000     0.991340000000     0.997570000000     0.0357173  
H108     H      0.702640000000     0.078710000000     0.190530000000     0.0304942  
H109     H      0.682630000000     0.065370000000     0.061350000000     0.0506734  
H110     H      0.774340000000     0.008650000000     0.176350000000     0.0494008  
H111     H      0.737770000000     0.092550000000     0.224190000000     0.0356511  
H112     H      0.756610000000     0.078570000000     0.036900000000     0.0283633  
H113     H      0.892350000000     0.102780000000     0.925940000000     0.0428101  
H114     H      0.968770000000     0.994780000000     0.920550000000     0.0267615  
H115     H      0.848870000000     0.015250000000     0.826340000000     0.0322098  
H116     H      0.899340000000     0.049070000000     0.821570000000     0.0490937  
H117     H      0.960230000000     0.029900000000     0.852020000000     0.0426127  
H118     H      0.924910000000     0.076120000000     0.982000000000     0.0424868  
H119     H      0.833660000000     0.102970000000     0.899620000000     0.034807   
H120     H      0.008420000000     0.007420000000     0.896940000000     0.0357294  
H121     H      0.908290000000     0.012790000000     0.854050000000     0.0439177  
H122     H      0.963970000000     0.089260000000     0.957000000000     0.0505047  
H123     H      0.853380000000     0.010430000000     0.888210000000     0.0330801  
H124     H      0.946770000000     0.022230000000     0.996270000000     0.0278827  
H125     H      0.869640000000     0.068620000000     0.949190000000     0.0507362  
H126     H      0.985100000000     0.060510000000     0.877670000000     0.0523909  
H127     H      0.972460000000     0.052190000000     0.023930000000     0.0359779  
H128     H      0.862160000000     0.099080000000     0.851220000000     0.029168   
H129     H      0.996020000000     0.518350000000     0.602460000000     0.0424177  
H130     H      0.082950000000     0.561230000000     0.740600000000     0.0249495  
H131     H      0.083310000000     0.506790000000     0.528170000000     0.0269929  
H132     H      0.105310000000     0.511750000000     0.604920000000     0.0422886  
H133     H      0.103090000000     0.533050000000     0.676150000000     0.0420205  
H134     H      0.999490000000     0.537950000000     0.674790000000     0.0421248  
H135     H      0.994620000000     0.477530000000     0.540560000000     0.035487   
H136     H      0.107820000000     0.590170000000     0.709560000000     0.0344575  
H137     H      0.085460000000     0.475740000000     0.625630000000     0.0505433  
H138     H      0.009840000000     0.570480000000     0.635500000000     0.0527324  
H139     H      0.102550000000     0.469440000000     0.544350000000     0.035329   
H140     H      0.022890000000     0.563060000000     0.740200000000     0.0249311  
H141     H      0.010560000000     0.480070000000     0.623200000000     0.0511595  
H142     H      0.096820000000     0.565950000000     0.635910000000     0.0521065  
H143     H      0.000340000000     0.594220000000     0.710280000000     0.0343635  
H144     H      0.020270000000     0.511690000000     0.526930000000     0.0270951  
H145     H      0.120930000000     0.835030000000     0.587260000000     0.0430675  
H146     H      0.092780000000     0.901680000000     0.468940000000     0.0296648  
H147     H      0.018250000000     0.806260000000     0.595290000000     0.0296879  
H148     H      0.026400000000     0.818150000000     0.512260000000     0.0428318  
H149     H      0.049920000000     0.860350000000     0.471270000000     0.0432658  
H150     H      0.091740000000     0.876270000000     0.610880000000     0.0435757  
H151     H      0.109070000000     0.786430000000     0.636510000000     0.0349742  
H152     H      0.052500000000     0.919640000000     0.456650000000     0.032885   
H153     H      0.060010000000     0.789490000000     0.507380000000     0.0499624  
H154     H      0.051120000000     0.892200000000     0.599560000000     0.0530403  
H155     H      0.016650000000     0.769680000000     0.561840000000     0.0338663  
H156     H      0.117930000000     0.912440000000     0.555370000000     0.0262547  
H157     H      0.115720000000     0.799660000000     0.553520000000     0.0519528  
H158     H      0.024040000000     0.882960000000     0.511460000000     0.0506625  
H159     H      0.092230000000     0.935230000000     0.594680000000     0.034009   
H160     H      0.077400000000     0.816640000000     0.643240000000     0.0264429  
H161     H      0.013640000000     0.534770000000     0.036840000000     0.0494821  
H162     H      0.056890000000     0.567220000000     0.233810000000     0.024823   
H163     H      0.071690000000     0.510470000000     0.016700000000     0.0279821  
H164     H      0.094260000000     0.528530000000     0.090370000000     0.0429604  
H165     H      0.085470000000     0.541200000000     0.172440000000     0.0424159  
H166     H      0.983610000000     0.555310000000     0.146080000000     0.0422162  
H167     H      0.000750000000     0.471060000000     0.088690000000     0.0321405  
H168     H      0.088930000000     0.594730000000     0.215020000000     0.0334934  
H169     H      0.077980000000     0.494030000000     0.121290000000     0.050504   
H170     H      0.002340000000     0.587090000000     0.111960000000     0.0510862  
H171     H      0.096560000000     0.479410000000     0.042650000000     0.0357969  
H172     H      0.998500000000     0.577080000000     0.217750000000     0.0254296  
H173     H      0.985740000000     0.526750000000     0.084290000000     0.0427491  
H174     H      0.085780000000     0.576480000000     0.135860000000     0.0531103  
H175     H      0.985090000000     0.610980000000     0.183740000000     0.0348163  
H176     H      0.990930000000     0.480710000000     0.029330000000     0.0325691  
H177     H      0.997030000000     0.690690000000     0.937160000000     0.0422317  
H178     H      0.085510000000     0.753710000000     0.826780000000     0.0255252  
H179     H      0.075150000000     0.641110000000     0.983710000000     0.0261363  
H180     H      0.103490000000     0.676990000000     0.933450000000     0.042453   
H181     H      0.106880000000     0.714970000000     0.879140000000     0.0422677  
H182     H      0.000870000000     0.723680000000     0.877950000000     0.042295   
H183     H      0.997030000000     0.682210000000     0.024110000000     0.0348047  
H184     H      0.108740000000     0.724670000000     0.793570000000     0.0349804  
H185     H      0.094960000000     0.711640000000     0.969410000000     0.050882   
H186     H      0.009670000000     0.686780000000     0.847390000000     0.0507203  
H187     H      0.103570000000     0.664780000000     0.018260000000     0.0349828  
H188     H      0.023810000000     0.756460000000     0.820880000000     0.026057   
H189     H      0.015950000000     0.722670000000     0.970390000000     0.0511203  
H190     H      0.091580000000     0.681420000000     0.845230000000     0.0525277  
H191     H      0.000750000000     0.726650000000     0.789020000000     0.0353876  
H192     H      0.013490000000     0.650360000000     0.988760000000     0.0253194  
H193     H      0.009920000000     0.665170000000     0.433370000000     0.0426106  
H194     H      0.102230000000     0.744060000000     0.342390000000     0.0254706  
H195     H      0.092200000000     0.620740000000     0.484650000000     0.0252238  
H196     H      0.115760000000     0.659190000000     0.435770000000     0.0422567  
H197     H      0.119550000000     0.699900000000     0.386300000000     0.0422307  
H198     H      0.012930000000     0.709950000000     0.389270000000     0.0423295  
H199     H      0.007250000000     0.648290000000     0.517350000000     0.0346264  
H200     H      0.120550000000     0.716520000000     0.301450000000     0.0350625  
H201     H      0.106140000000     0.692430000000     0.473900000000     0.0510816  
H202     H      0.022470000000     0.679390000000     0.346560000000     0.0524742  
H203     H      0.115020000000     0.646900000000     0.523040000000     0.0344055  
H204     H      0.041120000000     0.750840000000     0.347520000000     0.0252791  
H205     H      0.022960000000     0.695870000000     0.474120000000     0.0515807  
H206     H      0.102930000000     0.670690000000     0.345980000000     0.0514753  
H207     H      0.013600000000     0.730440000000     0.307580000000     0.0350594  
H208     H      0.031360000000     0.622830000000     0.479340000000     0.0256216  
H209     H      0.130470000000     0.876510000000     0.025750000000     0.0426136  
H210     H      0.066480000000     0.828700000000     0.177600000000     0.0272493  
H211     H      0.042250000000     0.924090000000     0.070820000000     0.0273625  
H212     H      0.065490000000     0.901570000000     0.144640000000     0.0435059  
H213     H      0.037250000000     0.861710000000     0.118660000000     0.0435465  
H214     H      0.137340000000     0.833590000000     0.068550000000     0.0426242  
H215     H      0.122990000000     0.931550000000     0.994800000000     0.0350112  
H216     H      0.031080000000     0.807580000000     0.153980000000     0.0358592  
H217     H      0.103730000000     0.922190000000     0.135490000000     0.0521585  
H218     H      0.101160000000     0.813910000000     0.043480000000     0.050026   
H219     H      0.056680000000     0.955380000000     0.108900000000     0.0361541  
H220     H      0.128080000000     0.810980000000     0.144760000000     0.0289869  
H221     H      0.143850000000     0.906620000000     0.066900000000     0.049681   
H222     H      0.040660000000     0.830780000000     0.076550000000     0.0522593  
H223     H      0.128390000000     0.779470000000     0.101790000000     0.035191   
H224     H      0.084570000000     0.908910000000     0.997210000000     0.029367   
H225     H      0.542080000000     0.006390000000     0.379940000000     0.0420592  
H226     H      0.562800000000     0.074240000000     0.543110000000     0.0259771  
H227     H      0.559710000000     0.086190000000     0.314860000000     0.0242756  
H228     H      0.547780000000     0.103220000000     0.391230000000     0.0416425  
H229     H      0.550620000000     0.102180000000     0.472130000000     0.0423403  
H230     H      0.543970000000     0.998250000000     0.460000000000     0.0421701  
H231     H      0.592040000000     0.004410000000     0.321010000000     0.0342108  
H232     H      0.526020000000     0.098530000000     0.551540000000     0.0347233  
H233     H      0.589550000000     0.094120000000     0.412180000000     0.053135   
H234     H      0.503040000000     0.016320000000     0.461890000000     0.0511072  
H235     H      0.597480000000     0.106320000000     0.332320000000     0.0345096  
H236     H      0.558520000000     0.015800000000     0.536820000000     0.0259178  
H237     H      0.584410000000     0.008500000000     0.402610000000     0.0537419  
H238     H      0.507680000000     0.088940000000     0.470760000000     0.0517736  
H239     H      0.518390000000     0.996080000000     0.539280000000     0.0348276  
H240     H      0.556740000000     0.029740000000     0.308430000000     0.0256414  
H241     H      0.230660000000     0.070350000000     0.521770000000     0.0436608  
H242     H      0.295010000000     0.034860000000     0.687270000000     0.025724   
H243     H      0.150240000000     0.009390000000     0.620340000000     0.0318401  
H244     H      0.206950000000     0.994710000000     0.591790000000     0.0496167  
H245     H      0.262790000000     0.999990000000     0.638210000000     0.0423726  
H246     H      0.263270000000     0.097080000000     0.581720000000     0.0430012  
H247     H      0.171950000000     0.062400000000     0.496110000000     0.0321368  
H248     H      0.323580000000     0.006860000000     0.660930000000     0.0344257  
H249     H      0.209220000000     0.015820000000     0.647110000000     0.0433417  
H250     H      0.292910000000     0.070920000000     0.552850000000     0.0521405  
H251     H      0.162240000000     0.050640000000     0.626660000000     0.0318045  
H252     H      0.291550000000     0.091580000000     0.656530000000     0.0270553  
H253     H      0.201520000000     0.086420000000     0.564280000000     0.0500111  
H254     H      0.290590000000     0.004770000000     0.589730000000     0.0529052  
H255     H      0.320740000000     0.104740000000     0.612430000000     0.0356613  
H256     H      0.193360000000     0.024930000000     0.504420000000     0.03172    
H257     H      0.584900000000     0.993050000000     0.911480000000     0.0420312  
H258     H      0.583670000000     0.075390000000     0.063030000000     0.0261123  
H259     H      0.590170000000     0.069630000000     0.833620000000     0.0249512  
H260     H      0.580110000000     0.092610000000     0.907140000000     0.0422019  
H261     H      0.579020000000     0.096000000000     0.986300000000     0.0423632  
H262     H      0.582880000000     0.992890000000     0.990560000000     0.0422453  
H263     H      0.632380000000     0.992320000000     0.850740000000     0.0344706  
H264     H      0.544240000000     0.096200000000     0.058900000000     0.0351919  
H265     H      0.622560000000     0.086160000000     0.927510000000     0.0530925  
H266     H      0.540020000000     0.005010000000     0.980730000000     0.05186    
H267     H      0.625980000000     0.094700000000     0.844870000000     0.0341112  
H268     H      0.585850000000     0.016740000000     0.065360000000     0.0259379  
H269     H      0.626320000000     0.003880000000     0.931880000000     0.051867   
H270     H      0.537180000000     0.080640000000     0.977660000000     0.0515275  
H271     H      0.548110000000     0.993200000000     0.063170000000     0.0351537  
H272     H      0.593970000000     0.012520000000     0.835850000000     0.0250829  
H273     H      0.450040000000     0.101510000000     0.823490000000     0.0420234  
H274     H      0.381210000000     0.015760000000     0.933160000000     0.0256239  
H275     H      0.490900000000     0.024540000000     0.765490000000     0.0261161  
H276     H      0.455010000000     0.999630000000     0.819360000000     0.0420624  
H277     H      0.420260000000     0.996650000000     0.878420000000     0.0420302  
H278     H      0.416330000000     0.099030000000     0.883900000000     0.0421474  
H279     H      0.453340000000     0.103930000000     0.735630000000     0.035429   
H280     H      0.412710000000     0.993800000000     0.964640000000     0.0346914  
H281     H      0.417080000000     0.011030000000     0.788930000000     0.0515392  
H282     H      0.453670000000     0.086480000000     0.914590000000     0.0500001  
H283     H      0.461350000000     0.000970000000     0.732920000000     0.0353985  
H284     H      0.379310000000     0.075340000000     0.937300000000     0.0260273  
H285     H      0.412840000000     0.088130000000     0.793210000000     0.0508776  
H286     H      0.456390000000     0.010250000000     0.911000000000     0.0504252  
H287     H      0.409940000000     0.096960000000     0.970850000000     0.0350369  
H288     H      0.487050000000     0.084060000000     0.765620000000     0.026273   
H289     H      0.466650000000     0.091650000000     0.329300000000     0.0418774  
H290     H      0.366710000000     0.020140000000     0.413550000000     0.0257116  
H291     H      0.502740000000     0.007170000000     0.285000000000     0.0243695  
H292     H      0.458050000000     0.991050000000     0.332110000000     0.0414832  
H293     H      0.412080000000     0.994440000000     0.376540000000     0.042055   
H294     H      0.420060000000     0.096800000000     0.371940000000     0.0419406  
H295     H      0.485480000000     0.090030000000     0.245400000000     0.0347559  
H296     H      0.388450000000     0.997670000000     0.457760000000     0.0347282  
H297     H      0.426210000000     0.003510000000     0.290990000000     0.0512698  
H298     H      0.447870000000     0.082680000000     0.417330000000     0.0504128  
H299     H      0.473940000000     0.987590000000     0.246080000000     0.0350108  
H300     H      0.371050000000     0.078520000000     0.409800000000     0.0254051  
H301     H      0.433640000000     0.082960000000     0.287780000000     0.0523192  
H302     H      0.442220000000     0.006230000000     0.420340000000     0.0496473  
H303     H      0.395370000000     0.100450000000     0.451970000000     0.0343554  
H304     H      0.508190000000     0.065350000000     0.285910000000     0.0254861  
H305     H      0.285310000000     0.092490000000     0.141040000000     0.0423443  
H306     H      0.222850000000     0.050270000000     0.007090000000     0.0306416  
H307     H      0.316030000000     0.005530000000     0.180830000000     0.026117   
H308     H      0.287690000000     0.990620000000     0.109440000000     0.0427165  
H309     H      0.257820000000     0.007870000000     0.041460000000     0.0433577  
H310     H      0.233160000000     0.092490000000     0.082470000000     0.0496852  
H311     H      0.346110000000     0.089590000000     0.165220000000     0.0346902  
H312     H      0.201790000000     0.012170000000     0.007480000000     0.0340005  
H313     H      0.317160000000     0.012590000000     0.073570000000     0.0522241  
H314     H      0.231370000000     0.080530000000     0.143330000000     0.0433848  
H315     H      0.345520000000     0.987620000000     0.140990000000     0.0352586  
H316     H      0.174480000000     0.084060000000     0.106970000000     0.0327264  
H317     H      0.313580000000     0.083790000000     0.094210000000     0.0525259  
H318     H      0.226280000000     0.998820000000     0.085070000000     0.0502791  
H319     H      0.184070000000     0.045350000000     0.130680000000     0.0321094  
H320     H      0.318070000000     0.063950000000     0.197210000000     0.0255959  
N1       N      0.046010000000     0.411770000000     0.864120000000    -0.175295   
N2       N      0.040900000000     0.349040000000     0.634300000000    -0.175509   
N3       N      0.053930000000     0.349970000000     0.131580000000    -0.175062   
N4       N      0.041790000000     0.406710000000     0.364710000000    -0.175021   
N5       N      0.054450000000     0.122060000000     0.507050000000    -0.174742   
N6       N      0.032920000000     0.285160000000     0.459680000000    -0.175023   
N7       N      0.058330000000     0.288850000000     0.953780000000    -0.174039   
N8       N      0.083500000000     0.131350000000     0.968300000000    -0.175414   
N9       N      0.964480000000     0.016670000000     0.471860000000    -0.174259   
N10      N      0.793860000000     0.043640000000     0.410290000000    -0.174985   
N11      N      0.662580000000     0.056670000000     0.498300000000    -0.176153   
N12      N      0.742970000000     0.055820000000     0.716880000000    -0.175786   
N13      N      0.725780000000     0.042270000000     0.231320000000    -0.174016   
N14      N      0.730330000000     0.043220000000     0.997890000000    -0.174692   
N15      N      0.993510000000     0.029510000000     0.962270000000    -0.175314   
N16      N      0.835930000000     0.056230000000     0.867290000000    -0.175761   
N17      N      0.054200000000     0.595840000000     0.704260000000    -0.175368   
N18      N      0.048310000000     0.469860000000     0.541960000000    -0.174905   
N19      N      0.073540000000     0.930120000000     0.524120000000    -0.175087   
N20      N      0.061090000000     0.776570000000     0.603870000000    -0.174758   
N21      N      0.038420000000     0.606500000000     0.194600000000    -0.175777   
N22      N      0.042750000000     0.472000000000     0.043180000000    -0.175121   
N23      N      0.054730000000     0.722560000000     0.787080000000    -0.174898   
N24      N      0.050840000000     0.675770000000     0.025760000000    -0.175069   
N25      N      0.066560000000     0.720750000000     0.299600000000    -0.175387   
N26      N      0.061080000000     0.651190000000     0.524710000000    -0.175631   
N27      N      0.080090000000     0.790890000000     0.131940000000    -0.174783   
N28      N      0.087420000000     0.945910000000     0.047890000000    -0.174686   
N29      N      0.517550000000     0.047580000000     0.546030000000    -0.175234   
N30      N      0.599850000000     0.054830000000     0.331590000000    -0.175322   
N31      N      0.325540000000     0.055370000000     0.634750000000    -0.175046   
N32      N      0.157000000000     0.035370000000     0.556370000000    -0.175448   
N33      N      0.541530000000     0.044540000000     0.060600000000    -0.175242   
N34      N      0.634200000000     0.043900000000     0.851530000000    -0.175626   
N35      N      0.413930000000     0.045320000000     0.972180000000    -0.17494    
N36      N      0.454630000000     0.052350000000     0.729940000000    -0.174431   
N37      N      0.394800000000     0.049020000000     0.460080000000    -0.175555   
N38      N      0.476340000000     0.039140000000     0.240950000000    -0.175068   
N39      N      0.183420000000     0.047070000000     0.056680000000    -0.175553   
N40      N      0.349280000000     0.039020000000     0.149670000000    -0.175464   
O1       O      0.430820000000     0.017050000000     0.037090000000    -0.400089   
O2       O      0.461270000000     0.013790000000     0.172720000000    -0.399382   
O3       O      0.397650000000     0.014080000000     0.125880000000    -0.402529   
O4       O      0.494690000000     0.016610000000     0.083550000000    -0.401401   
O5       O      0.493450000000     0.070110000000     0.084770000000    -0.399746   
O6       O      0.396960000000     0.067470000000     0.131180000000    -0.399106   
O7       O      0.461790000000     0.067290000000     0.175010000000    -0.399881   
O8       O      0.428760000000     0.070460000000     0.040700000000    -0.399663   
O9       O      0.409470000000     0.076770000000     0.526370000000    -0.400713   
O10      O      0.438360000000     0.078550000000     0.662760000000    -0.398296   
O11      O      0.472410000000     0.075920000000     0.573860000000    -0.401644   
O12      O      0.374910000000     0.079700000000     0.613810000000    -0.401772   
O13      O      0.373540000000     0.026360000000     0.620030000000    -0.397952   
O14      O      0.469980000000     0.022440000000     0.573140000000    -0.399087   
O15      O      0.438500000000     0.025050000000     0.663900000000    -0.399892   
O16      O      0.405650000000     0.023410000000     0.529560000000    -0.400299   
O17      O      0.090420000000     0.704970000000     0.230130000000    -0.39987    
O18      O      0.082100000000     0.681030000000     0.092890000000    -0.400396   
O19      O      0.096630000000     0.738760000000     0.143020000000    -0.401167   
O20      O      0.076010000000     0.646980000000     0.180110000000    -0.401062   
O21      O      0.021110000000     0.657830000000     0.178580000000    -0.400444   
O22      O      0.042230000000     0.750970000000     0.149070000000    -0.399571   
O23      O      0.027780000000     0.694140000000     0.094400000000    -0.399846   
O24      O      0.035270000000     0.714300000000     0.232870000000    -0.400967   
O25      O      0.087450000000     0.669060000000     0.591280000000    -0.400386   
O26      O      0.084000000000     0.703190000000     0.724050000000    -0.401418   
O27      O      0.084010000000     0.640520000000     0.682260000000    -0.400053   
O28      O      0.087240000000     0.732030000000     0.633740000000    -0.399822   
O29      O      0.031440000000     0.731880000000     0.625790000000    -0.399528   
O30      O      0.027980000000     0.642220000000     0.681070000000    -0.400227   
O31      O      0.028120000000     0.706010000000     0.719770000000    -0.398423   
O32      O      0.031430000000     0.668500000000     0.588670000000    -0.401099   
O33      O      0.729750000000     0.073120000000     0.930270000000    -0.400791   
O34      O      0.737230000000     0.079650000000     0.788900000000    -0.400424   
O35      O      0.682680000000     0.073500000000     0.854200000000    -0.402188   
O36      O      0.783850000000     0.079590000000     0.865290000000    -0.402413   
O37      O      0.787960000000     0.026390000000     0.858150000000    -0.400082   
O38      O      0.686240000000     0.020100000000     0.851350000000    -0.400487   
O39      O      0.739740000000     0.026280000000     0.784280000000    -0.403086   
O40      O      0.734710000000     0.019940000000     0.925350000000    -0.402058   
O41      O      0.684450000000     0.079510000000     0.431900000000    -0.401386   
O42      O      0.714200000000     0.072310000000     0.296690000000    -0.401124   
O43      O      0.650960000000     0.078640000000     0.344410000000    -0.400925   
O44      O      0.748620000000     0.073000000000     0.384730000000    -0.398746   
O45      O      0.743500000000     0.019890000000     0.392270000000    -0.399509   
O46      O      0.647250000000     0.025220000000     0.346090000000    -0.401047   
O47      O      0.711500000000     0.018950000000     0.301480000000    -0.399893   
O48      O      0.678710000000     0.026310000000     0.435350000000    -0.402351   
O49      O      0.077450000000     0.092490000000     0.024230000000    -0.402115   
O50      O      0.078510000000     0.999220000000     0.063880000000    -0.400838   
O51      O      0.126470000000     0.051370000000     0.067860000000    -0.399591   
O52      O      0.031020000000     0.041110000000     0.020620000000    -0.40289    
O53      O      0.050550000000     0.026490000000     0.950630000000    -0.400189   
O54      O      0.145990000000     0.036630000000     0.997820000000    -0.401698   
O55      O      0.099090000000     0.985250000000     0.994170000000    -0.400386   
O56      O      0.097820000000     0.078820000000     0.954200000000    -0.398246   
O57      O      0.046120000000     0.074640000000     0.546470000000    -0.398002   
O58      O      0.059620000000     0.978330000000     0.556750000000    -0.399929   
O59      O      0.100730000000     0.032240000000     0.572700000000    -0.398623   
O60      O      0.004130000000     0.019420000000     0.530330000000    -0.397555   
O61      O      0.020710000000     0.022280000000     0.455920000000    -0.399482   
O62      O      0.117810000000     0.028810000000     0.498380000000    -0.39881    
O63      O      0.071600000000     0.976230000000     0.480440000000    -0.397733   
O64      O      0.067150000000     0.073470000000     0.474110000000    -0.400797   
O65      O      0.080130000000     0.367640000000     0.064600000000    -0.398747   
O66      O      0.076140000000     0.398140000000     0.929640000000    -0.400224   
O67      O      0.074320000000     0.428940000000     0.019090000000    -0.401147   
O68      O      0.082240000000     0.337000000000     0.974260000000    -0.400488   
O69      O      0.026420000000     0.332360000000     0.975620000000    -0.399645   
O70      O      0.018510000000     0.424210000000     0.021840000000    -0.399469   
O71      O      0.020260000000     0.394250000000     0.931310000000    -0.400592   
O72      O      0.024330000000     0.362630000000     0.065320000000    -0.401348   
O73      O      0.013340000000     0.393160000000     0.431900000000    -0.398991   
O74      O      0.013010000000     0.365790000000     0.568380000000    -0.400347   
O75      O      0.016890000000     0.426130000000     0.520300000000    -0.401016   
O76      O      0.009160000000     0.333020000000     0.481100000000    -0.401726   
O77      O      0.064990000000     0.329650000000     0.476220000000    -0.398443   
O78      O      0.072750000000     0.422030000000     0.520830000000    -0.399403   
O79      O      0.068790000000     0.360800000000     0.566140000000    -0.400827   
O80      O      0.069340000000     0.391180000000     0.431410000000    -0.401013   


