data_structure

_audit_creation_method RASPA-1.0
_audit_creation_date 2023-5-22
_audit_author_name 'Poobodin Mano'

_cell_length_a    28.4964
_cell_length_b    28.7698
_cell_length_c    27.3598
_cell_angle_alpha 89.9996
_cell_angle_beta  90.0001
_cell_angle_gamma 89.9978
_cell_volume      22430.5

_symmetry_cell_setting          triclinic
_symmetry_space_group_name_Hall 'P 1'
_symmetry_space_group_name_H-M  'P 1'
_symmetry_Int_Tables_number     1

_symmetry_equiv_pos_as_xyz 'x,y,z'

loop_
_atom_site_label
_atom_site_type_symbol
_atom_site_fract_x
_atom_site_fract_y
_atom_site_fract_z
_atom_site_charge
C1       C      0.990230000000     0.450860000000     0.027410000000     0.472261   
C2       C      0.003200000000     0.626170000000     0.011960000000     0.469764   
C3       C      0.907800000000     0.546220000000     0.017500000000     0.475926   
C4       C      0.085130000000     0.528680000000     0.019840000000     0.47246    
C5       C      0.036380000000     0.430050000000     0.519080000000     0.47526    
C6       C      0.991280000000     0.600080000000     0.516240000000     0.473609   
C7       C      0.928030000000     0.492770000000     0.520990000000     0.475428   
C8       C      0.100170000000     0.539000000000     0.518360000000     0.478164   
C9       C      0.469380000000     0.443170000000     0.028020000000     0.47677    
C10      C      0.532680000000     0.607650000000     0.018400000000     0.473542   
C11      C      0.418290000000     0.558840000000     0.024850000000     0.473212   
C12      C      0.582950000000     0.491420000000     0.022580000000     0.476427   
C13      C      0.530420000000     0.423750000000     0.506680000000     0.470961   
C14      C      0.486030000000     0.591400000000     0.540380000000     0.476888   
C15      C      0.424570000000     0.483300000000     0.526790000000     0.47871    
C16      C      0.595870000000     0.531440000000     0.519820000000     0.477518   
C17      C      0.017890000000     0.954900000000     0.982250000000     0.401085   
C18      C      0.985650000000     0.118360000000     0.067440000000     0.401769   
C19      C      0.005310000000     0.080700000000     0.940050000000     0.40466    
C20      C      0.997630000000     0.992220000000     0.110360000000     0.404284   
C21      C      0.978110000000     0.924490000000     0.515610000000     0.402001   
C22      C      0.986100000000     0.104370000000     0.559270000000     0.401889   
C23      C      0.986590000000     0.037240000000     0.443100000000     0.403959   
C24      C      0.978240000000     0.991770000000     0.631180000000     0.404603   
C25      C      0.520750000000     0.944480000000     0.015590000000     0.400069   
C26      C      0.519020000000     0.125120000000     0.973250000000     0.402919   
C27      C      0.517800000000     0.014580000000     0.900170000000     0.402225   
C28      C      0.522500000000     0.055780000000     0.089220000000     0.405066   
C29      C      0.514680000000     0.913020000000     0.501930000000     0.401895   
C30      C      0.539490000000     0.090680000000     0.453850000000     0.401616   
C31      C      0.532110000000     0.976070000000     0.384820000000     0.402192   
C32      C      0.521870000000     0.026350000000     0.571150000000     0.40241    
C33      C      0.561860000000     0.005680000000     0.823920000000     0.0112181  
C34      C      0.472120000000     0.039350000000     0.642900000000     0.0112928  
C35      C      0.563700000000     0.038580000000     0.648010000000     0.0123736  
C36      C      0.472170000000     0.060450000000     0.694270000000    -0.103427   
C37      C      0.557910000000     0.984280000000     0.773040000000    -0.102649   
C38      C      0.558660000000     0.061590000000     0.697890000000    -0.10376    
C39      C      0.514460000000     0.003620000000     0.749360000000     0.0229059  
C40      C      0.514770000000     0.042730000000     0.720860000000     0.0237404  
C41      C      0.470360000000     0.006740000000     0.826030000000     0.0110396  
C42      C      0.471270000000     0.985840000000     0.774680000000    -0.10294    
C43      C      0.569480000000     0.066040000000     0.164270000000     0.0115895  
C44      C      0.489380000000     0.952770000000     0.311400000000     0.0121475  
C45      C      0.581320000000     0.961880000000     0.313200000000     0.0113764  
C46      C      0.494920000000     0.938100000000     0.258030000000    -0.103429   
C47      C      0.564710000000     0.047100000000     0.216490000000    -0.101866   
C48      C      0.580470000000     0.950270000000     0.258550000000    -0.102489   
C49      C      0.527140000000     0.009460000000     0.218230000000     0.0246444  
C50      C      0.534590000000     0.966200000000     0.237350000000     0.0231831  
C51      C      0.481080000000     0.067370000000     0.167800000000     0.0139485  
C52      C      0.478690000000     0.023650000000     0.199740000000    -0.101878   
C53      C      0.049200000000     0.104310000000     0.866450000000     0.0135555  
C54      C      0.934100000000     0.985820000000     0.708900000000     0.013888   
C55      C      0.019080000000     0.970100000000     0.707520000000     0.0157923  
C56      C      0.940060000000     0.028580000000     0.741690000000    -0.0997858  
C57      C      0.044810000000     0.066120000000     0.827680000000    -0.0991666  
C58      C      0.031280000000     0.012760000000     0.738030000000    -0.100096   
C59      C      0.995490000000     0.060900000000     0.805330000000     0.0174225  
C60      C      0.988880000000     0.032740000000     0.765360000000     0.0170862  
C61      C      0.964100000000     0.117120000000     0.870630000000     0.0165683  
C62      C      0.952610000000     0.080030000000     0.832660000000    -0.0995511  
C63      C      0.033590000000     0.054990000000     0.369060000000     0.0141267  
C64      C      0.951810000000     0.957320000000     0.178130000000     0.0139729  
C65      C      0.038170000000     0.957040000000     0.181390000000     0.0153786  
C66      C      0.947270000000     0.987900000000     0.223660000000    -0.0993196  
C67      C      0.036860000000     0.018080000000     0.329030000000    -0.100105   
C68      C      0.040200000000     0.987680000000     0.226840000000    -0.0993513  
C69      C      0.991660000000     0.012820000000     0.299040000000     0.0168694  
C70      C      0.992930000000     0.993960000000     0.252850000000     0.0172019  
C71      C      0.946930000000     0.057220000000     0.365150000000     0.0140423  
C72      C      0.944790000000     0.019910000000     0.325470000000    -0.100161   
C73      C      0.527020000000     0.358240000000     0.448860000000     0.0175221  
C74      C      0.590090000000     0.160860000000     0.454500000000     0.0118064  
C75      C      0.507800000000     0.165730000000     0.423420000000     0.0130302  
C76      C      0.581130000000     0.199750000000     0.491800000000    -0.100573   
C77      C      0.507500000000     0.308900000000     0.454100000000    -0.103743   
C78      C      0.496370000000     0.205230000000     0.458850000000    -0.100679   
C79      C      0.541550000000     0.277740000000     0.481370000000     0.01798    
C80      C      0.540670000000     0.230560000000     0.475370000000     0.0164278  
C81      C      0.557530000000     0.347030000000     0.535540000000     0.0164383  
C82      C      0.577280000000     0.301490000000     0.514310000000    -0.103604   
C83      C      0.545270000000     0.839850000000     0.537250000000     0.0114795  
C84      C      0.444330000000     0.663380000000     0.515730000000     0.0165389  
C85      C      0.486210000000     0.658970000000     0.596260000000     0.0172329  
C86      C      0.467520000000     0.710070000000     0.504380000000    -0.102343   
C87      C      0.524060000000     0.808580000000     0.577170000000    -0.101854   
C88      C      0.512760000000     0.704130000000     0.585680000000    -0.103515   
C89      C      0.483720000000     0.781240000000     0.555380000000     0.0178539  
C90      C      0.484940000000     0.734130000000     0.550530000000     0.019146   
C91      C      0.466710000000     0.842060000000     0.493680000000     0.0123063  
C92      C      0.445700000000     0.811180000000     0.533260000000    -0.101527   
C93      C      0.429540000000     0.375050000000     0.991120000000     0.0180428  
C94      C      0.556710000000     0.202320000000     0.978800000000     0.0125304  
C95      C      0.477910000000     0.193800000000     0.939390000000     0.0140093  
C96      C      0.537340000000     0.237970000000     0.015390000000    -0.101622   
C97      C      0.460820000000     0.338580000000     0.966820000000    -0.101746   
C98      C      0.456650000000     0.230230000000     0.973390000000    -0.101106   
C99      C      0.484700000000     0.307500000000     0.004550000000     0.0169805  
C100     C      0.494210000000     0.262060000000     0.994550000000     0.018079   
C101     C      0.472760000000     0.367330000000     0.070010000000     0.0156308  
C102     C      0.507210000000     0.332210000000     0.047790000000    -0.101734   
C103     C      0.541330000000     0.679860000000     0.969980000000     0.0164624  
C104     C      0.564260000000     0.874400000000     0.040720000000     0.0119831  
C105     C      0.478890000000     0.869550000000     0.013810000000     0.0121491  
C106     C      0.554570000000     0.825580000000     0.061480000000    -0.101474   
C107     C      0.509900000000     0.721590000000     0.981410000000    -0.10171    
C108     C      0.492960000000     0.822520000000     0.991900000000    -0.101062   
C109     C      0.529450000000     0.749130000000     0.024320000000     0.017294   
C110     C      0.526010000000     0.796520000000     0.025850000000     0.0160771  
C111     C      0.571040000000     0.676810000000     0.055770000000     0.0165393  
C112     C      0.543720000000     0.720930000000     0.069210000000    -0.102013   
C113     C      0.476940000000     0.476560000000     0.666490000000    -0.00334759 
C114     C      0.543790000000     0.527690000000     0.881640000000    -0.00440574 
C115     C      0.475240000000     0.479460000000     0.882490000000    -0.00067406 
C116     C      0.541440000000     0.537310000000     0.826740000000    -0.0899162  
C117     C      0.483210000000     0.464070000000     0.720790000000    -0.0912719  
C118     C      0.468350000000     0.482450000000     0.826840000000    -0.0916334  
C119     C      0.513400000000     0.498820000000     0.749030000000     0.0127803  
C120     C      0.509870000000     0.503390000000     0.799110000000     0.0132268  
C121     C      0.540570000000     0.531260000000     0.667690000000    -0.00620622 
C122     C      0.553720000000     0.520940000000     0.720740000000    -0.0899955  
C123     C      0.481910000000     0.487060000000     0.377710000000    -0.00253561 
C124     C      0.525040000000     0.569160000000     0.166360000000     0.00259244 
C125     C      0.459930000000     0.516420000000     0.166350000000    -5.70514e-05
C126     C      0.535460000000     0.561820000000     0.221020000000    -0.0924796  
C127     C      0.464610000000     0.500590000000     0.326760000000    -0.0906916  
C128     C      0.466520000000     0.501230000000     0.219420000000    -0.0909958  
C129     C      0.499770000000     0.530710000000     0.299020000000     0.0131672  
C130     C      0.498590000000     0.533420000000     0.248720000000     0.0139472  
C131     C      0.539740000000     0.547630000000     0.381400000000     0.000519933
C132     C      0.529360000000     0.564570000000     0.329190000000    -0.0922027  
C133     C      0.032800000000     0.172270000000     0.583900000000     0.0125108  
C134     C      0.032240000000     0.352120000000     0.481220000000     0.0158771  
C135     C      0.067300000000     0.361830000000     0.564180000000     0.0169878  
C136     C      0.994370000000     0.319270000000     0.501050000000    -0.101827   
C137     C      0.027360000000     0.223820000000     0.597580000000    -0.102045   
C138     C      0.031630000000     0.328450000000     0.586700000000    -0.101728   
C139     C      0.001760000000     0.250440000000     0.557630000000     0.0170868  
C140     C      0.011000000000     0.296110000000     0.548090000000     0.0172112  
C141     C      0.947890000000     0.181270000000     0.556730000000     0.0130296  
C142     C      0.964730000000     0.224200000000     0.528750000000    -0.101717   
C143     C      0.932010000000     0.856530000000     0.489800000000     0.0123931  
C144     C      0.004120000000     0.678380000000     0.549050000000     0.0156384  
C145     C      0.957590000000     0.665370000000     0.470240000000     0.0168695  
C146     C      0.974560000000     0.721640000000     0.558830000000    -0.10373    
C147     C      0.941790000000     0.812200000000     0.460360000000    -0.103042   
C148     C      0.926700000000     0.707320000000     0.482780000000    -0.105139   
C149     C      0.972800000000     0.780920000000     0.490620000000     0.0196679  
C150     C      0.956070000000     0.741300000000     0.511460000000     0.0211057  
C151     C      0.011370000000     0.847570000000     0.532250000000     0.0115402  
C152     C      0.019250000000     0.802560000000     0.504020000000    -0.101778   
C153     C      0.667950000000     0.556540000000     0.563050000000     0.0191566  
C154     C      0.855270000000     0.468420000000     0.478100000000     0.0182845  
C155     C      0.856070000000     0.474040000000     0.568400000000     0.0176728  
C156     C      0.812890000000     0.500670000000     0.473330000000    -0.101483   
C157     C      0.711020000000     0.525300000000     0.567360000000    -0.101572   
C158     C      0.812590000000     0.505350000000     0.569000000000    -0.101298   
C159     C      0.738870000000     0.520620000000     0.519800000000     0.0170585  
C160     C      0.785060000000     0.506240000000     0.520810000000     0.0168772  
C161     C      0.667310000000     0.552750000000     0.472650000000     0.0174818  
C162     C      0.711520000000     0.522300000000     0.471490000000    -0.101222   
C163     C      0.352310000000     0.464570000000     0.573660000000     0.0178384  
C164     C      0.172770000000     0.555830000000     0.471260000000     0.0178264  
C165     C      0.172560000000     0.564290000000     0.561170000000     0.0188817  
C166     C      0.213940000000     0.521630000000     0.472390000000    -0.101165   
C167     C      0.310840000000     0.498540000000     0.572910000000    -0.101267   
C168     C      0.212460000000     0.529470000000     0.568150000000    -0.101337   
C169     C      0.284720000000     0.501070000000     0.523860000000     0.0172754  
C170     C      0.240230000000     0.519690000000     0.521340000000     0.0171581  
C171     C      0.352760000000     0.457450000000     0.483610000000     0.0197641  
C172     C      0.312580000000     0.491880000000     0.476970000000    -0.101532   
C173     C      0.002300000000     0.383370000000     0.080910000000     0.0177045  
C174     C      0.933850000000     0.187100000000     0.075290000000     0.0115897  
C175     C      0.015520000000     0.189950000000     0.107260000000     0.0137523  
C176     C      0.943590000000     0.226640000000     0.038880000000    -0.100012   
C177     C      0.021160000000     0.333890000000     0.074650000000    -0.104078   
C178     C      0.028490000000     0.229740000000     0.072750000000    -0.100549   
C179     C      0.985970000000     0.303280000000     0.048290000000     0.0180963  
C180     C      0.985010000000     0.256230000000     0.055550000000     0.0159112  
C181     C      0.971900000000     0.373070000000     0.994010000000     0.0169158  
C182     C      0.951400000000     0.327450000000     0.014320000000    -0.10408    
C183     C      0.071440000000     0.888000000000     0.970800000000     0.0125481  
C184     C      0.976850000000     0.696370000000     0.968010000000     0.0153179  
C185     C      0.025890000000     0.703190000000     0.044600000000     0.0157489  
C186     C      0.005020000000     0.735270000000     0.944030000000    -0.102574   
C187     C      0.062980000000     0.844260000000     0.001520000000    -0.100962   
C188     C      0.055200000000     0.742020000000     0.020930000000    -0.103478   
C189     C      0.025090000000     0.814240000000     0.978440000000     0.0167086  
C190     C      0.026360000000     0.766930000000     0.982330000000     0.0192383  
C191     C      0.990420000000     0.885250000000     0.936430000000     0.0124836  
C192     C      0.980290000000     0.839410000000     0.963000000000    -0.100434   
C193     C      0.651090000000     0.460200000000     0.976330000000     0.0180062  
C194     C      0.833370000000     0.558780000000     0.062810000000     0.0167915  
C195     C      0.832940000000     0.554920000000     0.972210000000     0.0179767  
C196     C      0.795270000000     0.521480000000     0.066910000000    -0.101283   
C197     C      0.695680000000     0.489670000000     0.972110000000    -0.100776   
C198     C      0.795420000000     0.517050000000     0.971530000000    -0.101211   
C199     C      0.722800000000     0.496410000000     0.020110000000     0.0167877  
C200     C      0.767790000000     0.513920000000     0.019380000000     0.0168189  
C201     C      0.652870000000     0.461580000000     0.066450000000     0.0188242  
C202     C      0.696210000000     0.492640000000     0.068610000000    -0.100894   
C203     C      0.349790000000     0.592210000000     0.981240000000     0.0183355  
C204     C      0.158580000000     0.512960000000     0.065460000000     0.0179939  
C205     C      0.159530000000     0.515110000000     0.974710000000     0.0170501  
C206     C      0.200060000000     0.546350000000     0.069380000000    -0.101824   
C207     C      0.304110000000     0.564900000000     0.976380000000    -0.100747   
C208     C      0.201950000000     0.547840000000     0.974110000000    -0.101443   
C209     C      0.275840000000     0.561540000000     0.023820000000     0.0165737  
C210     C      0.229080000000     0.549190000000     0.022470000000     0.016922   
C211     C      0.349500000000     0.588230000000     0.071480000000     0.0172847  
C212     C      0.302540000000     0.562260000000     0.072540000000    -0.100852   
C213     C      0.987770000000     0.485640000000     0.877900000000     0.00132756 
C214     C      0.023470000000     0.561400000000     0.661570000000     0.000368362
C215     C      0.978990000000     0.490530000000     0.661880000000     0.00139942 
C216     C      0.037530000000     0.557330000000     0.715510000000    -0.091497   
C217     C      0.976960000000     0.488180000000     0.822930000000    -0.0918962  
C218     C      0.988670000000     0.480350000000     0.715970000000    -0.0922742  
C219     C      0.007210000000     0.522880000000     0.794490000000     0.0136442  
C220     C      0.008330000000     0.521950000000     0.744110000000     0.013666   
C221     C      0.036620000000     0.553520000000     0.876680000000    -0.000256144
C222     C      0.028270000000     0.563830000000     0.822510000000    -0.0910832  
C223     C      0.032100000000     0.557370000000     0.377830000000    -0.00490709 
C224     C      0.971940000000     0.507750000000     0.161140000000    -0.00409718 
C225     C      0.039150000000     0.558030000000     0.162520000000    -0.000348574
C226     C      0.960100000000     0.515600000000     0.215020000000    -0.090451   
C227     C      0.043070000000     0.553100000000     0.323270000000    -0.0898002  
C228     C      0.033230000000     0.569800000000     0.216950000000    -0.091819   
C229     C      0.003300000000     0.530940000000     0.294120000000     0.0131537  
C230     C      0.000970000000     0.535990000000     0.244050000000     0.0132308  
C231     C      0.969150000000     0.502180000000     0.376020000000    -0.00253751 
C232     C      0.972310000000     0.495470000000     0.320430000000    -0.0907729  
Cu1      Cu     0.997670000000     0.543440000000     0.070740000000     1.20096    
Cu2      Cu     0.995190000000     0.533870000000     0.967330000000     1.18924    
Cu3      Cu     0.016060000000     0.516750000000     0.570640000000     1.20069    
Cu4      Cu     0.012790000000     0.513670000000     0.466630000000     1.20287    
Cu5      Cu     0.503570000000     0.527560000000     0.075310000000     1.201      
Cu6      Cu     0.497950000000     0.523060000000     0.971370000000     1.19808    
Cu7      Cu     0.514620000000     0.500200000000     0.575110000000     1.1954     
Cu8      Cu     0.505270000000     0.516050000000     0.472200000000     1.20623    
Cu9      Cu     0.958890000000     0.031100000000     0.019660000000     0.839305   
Cu10     Cu     0.044260000000     0.041890000000     0.030670000000     0.842452   
Cu11     Cu     0.938960000000     0.016760000000     0.535240000000     0.842637   
Cu12     Cu     0.025500000000     0.012160000000     0.539090000000     0.845635   
Cu13     Cu     0.476650000000     0.034720000000     0.995430000000     0.843821   
Cu14     Cu     0.563380000000     0.035180000000     0.994090000000     0.845162   
Cu15     Cu     0.484170000000     0.006380000000     0.473520000000     0.84443    
Cu16     Cu     0.570000000000     0.997130000000     0.482150000000     0.844945   
H1       H      0.590520000000     0.989450000000     0.751760000000     0.0432161  
H2       H      0.458180000000     0.003280000000     0.645190000000     0.0307002  
H3       H      0.458340000000     0.043460000000     0.823460000000     0.0310247  
H4       H      0.437990000000     0.992760000000     0.755260000000     0.0429531  
H5       H      0.438460000000     0.053870000000     0.713000000000     0.0429043  
H6       H      0.590700000000     0.057070000000     0.720270000000     0.0433564  
H7       H      0.589240000000     0.986380000000     0.844640000000     0.0344726  
H8       H      0.447100000000     0.059330000000     0.619800000000     0.0341097  
H9       H      0.473120000000     0.947330000000     0.777820000000     0.0484023  
H10      H      0.555420000000     0.099820000000     0.692680000000     0.0488231  
H11      H      0.443540000000     0.987790000000     0.847860000000     0.0346446  
H12      H      0.576110000000     0.002230000000     0.653180000000     0.0314274  
H13      H      0.554570000000     0.945920000000     0.776880000000     0.0487127  
H14      H      0.474240000000     0.098940000000     0.690960000000     0.0481974  
H15      H      0.591640000000     0.057130000000     0.627330000000     0.0333244  
H16      H      0.574450000000     0.042130000000     0.820330000000     0.0311155  
H17      H      0.599700000000     0.036490000000     0.229830000000     0.044425   
H18      H      0.467260000000     0.984650000000     0.312560000000     0.0341502  
H19      H      0.448640000000     0.070370000000     0.145460000000     0.0344028  
H20      H      0.464040000000     0.995290000000     0.176720000000     0.0520713  
H21      H      0.461250000000     0.942330000000     0.238210000000     0.0429704  
H22      H      0.611630000000     0.964200000000     0.239280000000     0.0433569  
H23      H      0.582700000000     0.102350000000     0.165680000000     0.0265239  
H24      H      0.469440000000     0.925500000000     0.331390000000     0.0302908  
H25      H      0.454710000000     0.029960000000     0.231070000000     0.0447151  
H26      H      0.583450000000     0.911930000000     0.254270000000     0.0464702  
H27      H      0.482690000000     0.098370000000     0.192050000000     0.0252042  
H28      H      0.597740000000     0.996710000000     0.317800000000     0.0319124  
H29      H      0.553390000000     0.075770000000     0.241060000000     0.0495877  
H30      H      0.503280000000     0.900360000000     0.256340000000     0.0473323  
H31      H      0.604780000000     0.936890000000     0.332330000000     0.0325824  
H32      H      0.596440000000     0.044910000000     0.144990000000     0.0373392  
H33      H      0.070980000000     0.074070000000     0.798740000000     0.0423039  
H34      H      0.929180000000     0.954780000000     0.732630000000     0.0253423  
H35      H      0.969800000000     0.150760000000     0.851420000000     0.0230496  
H36      H      0.927300000000     0.095970000000     0.806690000000     0.0422607  
H37      H      0.911910000000     0.026250000000     0.769620000000     0.0424139  
H38      H      0.059470000000     0.001660000000     0.763480000000     0.0426874  
H39      H      0.081610000000     0.098740000000     0.888310000000     0.0339759  
H40      H      0.901980000000     0.989800000000     0.686220000000     0.0345976  
H41      H      0.934940000000     0.050600000000     0.851520000000     0.0544837  
H42      H      0.045670000000     0.040160000000     0.713600000000     0.0536531  
H43      H      0.933900000000     0.121790000000     0.895920000000     0.0316659  
H44      H      0.012620000000     0.940390000000     0.732710000000     0.0246346  
H45      H      0.054510000000     0.032490000000     0.844990000000     0.0513652  
H46      H      0.933820000000     0.060280000000     0.719380000000     0.0515552  
H47      H      0.049330000000     0.960630000000     0.683860000000     0.0336953  
H48      H      0.052410000000     0.138480000000     0.847660000000     0.0246563  
H49      H      0.067100000000     0.028550000000     0.305970000000     0.0423072  
H50      H      0.952130000000     0.920270000000     0.189860000000     0.0249199  
H51      H      0.949020000000     0.091820000000     0.347070000000     0.0256008  
H52      H      0.916600000000     0.031070000000     0.300070000000     0.042518   
H53      H      0.919650000000     0.971700000000     0.246710000000     0.0422539  
H54      H      0.066290000000     0.971220000000     0.251560000000     0.0421153  
H55      H      0.064550000000     0.052100000000     0.393580000000     0.0347253  
H56      H      0.920660000000     0.962480000000     0.154280000000     0.0345842  
H57      H      0.934180000000     0.986360000000     0.342330000000     0.05176    
H58      H      0.053440000000     0.022560000000     0.216040000000     0.0524394  
H59      H      0.913960000000     0.056430000000     0.386830000000     0.0349066  
H60      H      0.036580000000     0.920080000000     0.193310000000     0.0238793  
H61      H      0.045130000000     0.983990000000     0.346100000000     0.0518462  
H62      H      0.934940000000     0.022880000000     0.212080000000     0.0512877  
H63      H      0.070870000000     0.961400000000     0.159700000000     0.033447   
H64      H      0.034980000000     0.089850000000     0.351470000000     0.0255173  
H65      H      0.473530000000     0.310050000000     0.474040000000     0.0501409  
H66      H      0.604040000000     0.176780000000     0.420400000000     0.0268771  
H67      H      0.528920000000     0.338850000000     0.561830000000     0.0309656  
H68      H      0.586800000000     0.278860000000     0.545720000000     0.0432612  
H69      H      0.614420000000     0.219520000000     0.495510000000     0.0423329  
H70      H      0.469970000000     0.228040000000     0.441310000000     0.0421585  
H71      H      0.559200000000     0.357420000000     0.425860000000     0.0273792  
H72      H      0.617450000000     0.137160000000     0.469220000000     0.035452   
H73      H      0.609540000000     0.309050000000     0.492920000000     0.0489276  
H74      H      0.479290000000     0.190220000000     0.491790000000     0.0529939  
H75      H      0.585590000000     0.365070000000     0.556520000000     0.0308073  
H76      H      0.519730000000     0.181370000000     0.388370000000     0.0253139  
H77      H      0.501380000000     0.295490000000     0.416520000000     0.0430773  
H78      H      0.572420000000     0.184270000000     0.527890000000     0.0509848  
H79      H      0.475420000000     0.145510000000     0.415630000000     0.0343892  
H80      H      0.500520000000     0.379700000000     0.429290000000     0.0313672  
H81      H      0.552580000000     0.786380000000     0.591880000000     0.0423192  
H82      H      0.409770000000     0.670410000000     0.533130000000     0.0243879  
H83      H      0.477710000000     0.819650000000     0.462590000000     0.026132   
H84      H      0.415360000000     0.791220000000     0.519040000000     0.0424593  
H85      H      0.442790000000     0.731140000000     0.482430000000     0.0431498  
H86      H      0.518070000000     0.721910000000     0.621330000000     0.0423346  
H87      H      0.572200000000     0.862640000000     0.554320000000     0.0342855  
H88      H      0.437460000000     0.644500000000     0.481000000000     0.0343315  
H89      H      0.431230000000     0.833890000000     0.562500000000     0.0516223  
H90      H      0.547620000000     0.696100000000     0.569520000000     0.0501407  
H91      H      0.439060000000     0.865890000000     0.479770000000     0.0350777  
H92      H      0.453730000000     0.667420000000     0.617020000000     0.0254023  
H93      H      0.510740000000     0.830520000000     0.607600000000     0.0495392  
H94      H      0.498450000000     0.703610000000     0.480590000000     0.0521838  
H95      H      0.508620000000     0.636660000000     0.619820000000     0.0314074  
H96      H      0.563210000000     0.817500000000     0.509820000000     0.0291623  
H97      H      0.439750000000     0.319630000000     0.939370000000     0.0420526  
H98      H      0.570870000000     0.221250000000     0.946550000000     0.0273198  
H99      H      0.442800000000     0.347980000000     0.086340000000     0.02538    
H100     H      0.516970000000     0.307330000000     0.077160000000     0.04308    
H101     H      0.565910000000     0.263220000000     0.023140000000     0.0429725  
H102     H      0.428350000000     0.248530000000     0.953550000000     0.0425259  
H103     H      0.416830000000     0.400210000000     0.963240000000     0.0309259  
H104     H      0.586060000000     0.182990000000     0.996250000000     0.034687   
H105     H      0.539440000000     0.350510000000     0.035370000000     0.0511845  
H106     H      0.439430000000     0.211970000000     0.004370000000     0.0537647  
H107     H      0.490660000000     0.386710000000     0.099810000000     0.0349173  
H108     H      0.489950000000     0.211720000000     0.905620000000     0.0251935  
H109     H      0.488790000000     0.356930000000     0.946080000000     0.0521714  
H110     H      0.527750000000     0.220180000000     0.050050000000     0.0510503  
H111     H      0.450510000000     0.168280000000     0.928540000000     0.0333538  
H112     H      0.398340000000     0.357030000000     0.006550000000     0.0235735  
H113     H      0.507940000000     0.742880000000     0.947590000000     0.0427877  
H114     H      0.582130000000     0.895760000000     0.069050000000     0.0312465  
H115     H      0.606960000000     0.687380000000     0.044350000000     0.0241522  
H116     H      0.565050000000     0.740890000000     0.095770000000     0.041692   
H117     H      0.535220000000     0.828560000000     0.096610000000     0.0481965  
H118     H      0.460230000000     0.802280000000     0.985810000000     0.0428096  
H119     H      0.525140000000     0.659440000000     0.939900000000     0.0347329  
H120     H      0.588830000000     0.871540000000     0.009260000000     0.0327405  
H121     H      0.511090000000     0.710490000000     0.088570000000     0.0506783  
H122     H      0.510500000000     0.828220000000     0.956110000000     0.0502196  
H123     H      0.574720000000     0.654440000000     0.088680000000     0.0316721  
H124     H      0.459190000000     0.863810000000     0.048390000000     0.0294384  
H125     H      0.473950000000     0.709340000000     0.990540000000     0.0511407  
H126     H      0.589270000000     0.809280000000     0.068520000000     0.0428042  
H127     H      0.454880000000     0.887400000000     0.987820000000     0.0340125  
H128     H      0.575870000000     0.692880000000     0.956820000000     0.0253232  
H129     H      0.447260000000     0.461690000000     0.736140000000     0.0394678  
H130     H      0.565550000000     0.496220000000     0.888430000000     0.028716   
H131     H      0.514790000000     0.560300000000     0.666660000000     0.0313406  
H132     H      0.564420000000     0.554800000000     0.736620000000     0.038839   
H133     H      0.578170000000     0.535260000000     0.813350000000     0.0389739  
H134     H      0.461340000000     0.446410000000     0.814290000000     0.0394739  
H135     H      0.462700000000     0.445580000000     0.647370000000     0.0280058  
H136     H      0.561320000000     0.557450000000     0.899870000000     0.0273811  
H137     H      0.584380000000     0.497070000000     0.721630000000     0.0466781  
H138     H      0.436800000000     0.503980000000     0.819150000000     0.0461794  
H139     H      0.572560000000     0.542930000000     0.648220000000     0.0304568  
H140     H      0.497020000000     0.448590000000     0.891920000000     0.0255035  
H141     H      0.499890000000     0.429250000000     0.723600000000     0.0464262  
H142     H      0.528170000000     0.573200000000     0.820780000000     0.0467774  
H143     H      0.440260000000     0.474620000000     0.899640000000     0.0288794  
H144     H      0.450870000000     0.505170000000     0.662690000000     0.0277772  
H145     H      0.457550000000     0.467460000000     0.307300000000     0.0392404  
H146     H      0.500680000000     0.599030000000     0.161190000000     0.0238777  
H147     H      0.568420000000     0.521340000000     0.380860000000     0.026107   
H148     H      0.563950000000     0.570980000000     0.311800000000     0.0396059  
H149     H      0.539110000000     0.596940000000     0.237460000000     0.0397137  
H150     H      0.430930000000     0.499850000000     0.235950000000     0.0394411  
H151     H      0.452530000000     0.470430000000     0.397690000000     0.0300514  
H152     H      0.558480000000     0.577900000000     0.147680000000     0.0275637  
H153     H      0.510260000000     0.598210000000     0.331240000000     0.0464549  
H154     H      0.481770000000     0.465660000000     0.219860000000     0.0473908  
H155     H      0.552120000000     0.577760000000     0.403260000000     0.0260666  
H156     H      0.436040000000     0.547010000000     0.164400000000     0.0266194  
H157     H      0.431060000000     0.520050000000     0.330170000000     0.0466901  
H158     H      0.569700000000     0.543570000000     0.224440000000     0.0461006  
H159     H      0.443020000000     0.487690000000     0.145840000000     0.0271324  
H160     H      0.510680000000     0.461000000000     0.374810000000     0.0288895  
H161     H      0.007590000000     0.227020000000     0.632430000000     0.0479349  
H162     H      0.062820000000     0.330970000000     0.469180000000     0.026352   
H163     H      0.930920000000     0.192330000000     0.591440000000     0.0282165  
H164     H      0.933740000000     0.246780000000     0.521870000000     0.0429152  
H165     H      0.986630000000     0.293700000000     0.471750000000     0.0429736  
H166     H      0.048560000000     0.310330000000     0.617730000000     0.0419928  
H167     H      0.058970000000     0.169030000000     0.553890000000     0.033786   
H168     H      0.018220000000     0.370730000000     0.448750000000     0.0354436  
H169     H      0.979700000000     0.213100000000     0.493080000000     0.0509834  
H170     H      0.002400000000     0.349180000000     0.602480000000     0.051806   
H171     H      0.920870000000     0.163280000000     0.534310000000     0.0346461  
H172     H      0.098780000000     0.341410000000     0.553340000000     0.0246419  
H173     H      0.063440000000     0.237460000000     0.603040000000     0.0430382  
H174     H      0.961790000000     0.339250000000     0.508690000000     0.0505011  
H175     H      0.078620000000     0.387660000000     0.592010000000     0.0340943  
H176     H      0.047170000000     0.152850000000     0.615720000000     0.0299739  
H177     H      0.907530000000     0.796410000000     0.450750000000     0.0425058  
H178     H      0.038330000000     0.689430000000     0.533340000000     0.0245197  
H179     H      0.998970000000     0.838690000000     0.569650000000     0.0268982  
H180     H      0.042550000000     0.778810000000     0.524800000000     0.0434101  
H181     H      0.994620000000     0.747360000000     0.580680000000     0.0436565  
H182     H      0.912680000000     0.721650000000     0.448140000000     0.0426799  
H183     H      0.912580000000     0.881320000000     0.466020000000     0.0331328  
H184     H      0.011810000000     0.661170000000     0.584550000000     0.0327928  
H185     H      0.038310000000     0.810950000000     0.469670000000     0.0504179  
H186     H      0.896400000000     0.695800000000     0.505340000000     0.0499348  
H187     H      0.045690000000     0.865530000000     0.536370000000     0.0354877  
H188     H      0.984800000000     0.676210000000     0.443380000000     0.0274101  
H189     H      0.960060000000     0.821330000000     0.425760000000     0.049584   
H190     H      0.944090000000     0.711410000000     0.581840000000     0.0501226  
H191     H      0.935240000000     0.638640000000     0.452270000000     0.0313592  
H192     H      0.908850000000     0.847770000000     0.521230000000     0.0308234  
H193     H      0.732550000000     0.540980000000     0.596860000000     0.0417187  
H194     H      0.842280000000     0.432030000000     0.480830000000     0.0232912  
H195     H      0.678260000000     0.589820000000     0.470370000000     0.0236951  
H196     H      0.733540000000     0.536540000000     0.441550000000     0.041525   
H197     H      0.791010000000     0.485470000000     0.443820000000     0.0415355  
H198     H      0.790710000000     0.492180000000     0.599560000000     0.0416283  
H199     H      0.646410000000     0.553230000000     0.596720000000     0.0314672  
H200     H      0.876750000000     0.470860000000     0.444300000000     0.0317332  
H201     H      0.701220000000     0.486220000000     0.461660000000     0.0494997  
H202     H      0.823640000000     0.541460000000     0.577740000000     0.0498384  
H203     H      0.645570000000     0.544990000000     0.439900000000     0.0308423  
H204     H      0.844260000000     0.437280000000     0.571440000000     0.0229939  
H205     H      0.699690000000     0.490090000000     0.579210000000     0.0517645  
H206     H      0.825100000000     0.535550000000     0.461340000000     0.0502799  
H207     H      0.877910000000     0.481730000000     0.601070000000     0.0304711  
H208     H      0.680120000000     0.593250000000     0.561020000000     0.0227536  
H209     H      0.287070000000     0.487090000000     0.602720000000     0.0419573  
H210     H      0.187150000000     0.591630000000     0.467590000000     0.0232124  
H211     H      0.337520000000     0.421990000000     0.487250000000     0.023029   
H212     H      0.290020000000     0.476800000000     0.447940000000     0.0420393  
H213     H      0.237540000000     0.532590000000     0.442240000000     0.0418934  
H214     H      0.235220000000     0.544420000000     0.597090000000     0.0420067  
H215     H      0.374120000000     0.471410000000     0.606580000000     0.0307543  
H216     H      0.150900000000     0.548860000000     0.438420000000     0.0318827  
H217     H      0.327050000000     0.525430000000     0.463590000000     0.0522393  
H218     H      0.197640000000     0.496150000000     0.581750000000     0.0521841  
H219     H      0.375150000000     0.457420000000     0.450340000000     0.0318012  
H220     H      0.188130000000     0.599550000000     0.557000000000     0.0232646  
H221     H      0.324010000000     0.533900000000     0.581870000000     0.0497632  
H222     H      0.200530000000     0.486230000000     0.464040000000     0.0509054  
H223     H      0.150340000000     0.564840000000     0.594570000000     0.0339721  
H224     H      0.338230000000     0.428610000000     0.576760000000     0.0238299  
H225     H      0.054570000000     0.334730000000     0.053680000000     0.0499283  
H226     H      0.920390000000     0.202570000000     0.109830000000     0.0265334  
H227     H      0.002010000000     0.365020000000     0.969560000000     0.0286043  
H228     H      0.942710000000     0.304900000000     0.982590000000     0.0432937  
H229     H      0.910850000000     0.247410000000     0.035900000000     0.042135   
H230     H      0.054980000000     0.251660000000     0.091310000000     0.0422604  
H231     H      0.971360000000     0.382860000000     0.105700000000     0.0271955  
H232     H      0.905990000000     0.164170000000     0.060230000000     0.0352922  
H233     H      0.918560000000     0.335110000000     0.034710000000     0.048948   
H234     H      0.045980000000     0.214880000000     0.039970000000     0.0544124  
H235     H      0.944810000000     0.390750000000     0.971390000000     0.02979    
H236     H      0.002850000000     0.205260000000     0.142200000000     0.0251698  
H237     H      0.028190000000     0.320480000000     0.112030000000     0.0431914  
H238     H      0.951610000000     0.211710000000     0.002350000000     0.0512684  
H239     H      0.047260000000     0.168940000000     0.115650000000     0.0339263  
H240     H      0.029870000000     0.404730000000     0.098990000000     0.0311455  
H241     H      0.096930000000     0.825340000000     0.003710000000     0.0422712  
H242     H      0.944780000000     0.711870000000     0.984490000000     0.0259975  
H243     H      0.003800000000     0.876760000000     0.899290000000     0.0253664  
H244     H      0.956740000000     0.818400000000     0.939690000000     0.042666   
H245     H      0.982870000000     0.753250000000     0.916760000000     0.0425643  
H246     H      0.066560000000     0.765650000000     0.050760000000     0.0429333  
H247     H      0.097840000000     0.910120000000     0.989580000000     0.0353735  
H248     H      0.965090000000     0.671630000000     0.939290000000     0.0351184  
H249     H      0.960130000000     0.847440000000     0.996740000000     0.0533141  
H250     H      0.087030000000     0.726890000000     0.003650000000     0.0489452  
H251     H      0.957240000000     0.905080000000     0.931810000000     0.0342563  
H252     H      0.997680000000     0.719320000000     0.067020000000     0.0281607  
H253     H      0.052040000000     0.854300000000     0.039080000000     0.0514961  
H254     H      0.034230000000     0.719310000000     0.922950000000     0.0505929  
H255     H      0.048930000000     0.682890000000     0.069550000000     0.0329897  
H256     H      0.086410000000     0.877390000000     0.934920000000     0.0263239  
H257     H      0.717930000000     0.472000000000     0.944440000000     0.0415041  
H258     H      0.816040000000     0.593440000000     0.061800000000     0.0251813  
H259     H      0.664680000000     0.424700000000     0.065860000000     0.0229256  
H260     H      0.718940000000     0.477600000000     0.097560000000     0.0417996  
H261     H      0.772270000000     0.533030000000     0.097280000000     0.0417903  
H262     H      0.772650000000     0.525460000000     0.939870000000     0.0418384  
H263     H      0.629000000000     0.465610000000     0.943360000000     0.0302431  
H264     H      0.855740000000     0.557570000000     0.096070000000     0.0333683  
H265     H      0.685250000000     0.528100000000     0.080040000000     0.0516576  
H266     H      0.812410000000     0.482910000000     0.964590000000     0.0510006  
H267     H      0.631670000000     0.466510000000     0.100160000000     0.0348297  
H268     H      0.815080000000     0.589290000000     0.970490000000     0.0247051  
H269     H      0.685850000000     0.524530000000     0.957860000000     0.049108   
H270     H      0.811810000000     0.488000000000     0.077570000000     0.0492713  
H271     H      0.855020000000     0.551740000000     0.938880000000     0.0355564  
H272     H      0.661450000000     0.422910000000     0.977060000000     0.0230174  
H273     H      0.283780000000     0.582940000000     0.947430000000     0.0417245  
H274     H      0.172470000000     0.476800000000     0.065190000000     0.0241521  
H275     H      0.342210000000     0.626190000000     0.073450000000     0.0234592  
H276     H      0.281480000000     0.579600000000     0.101410000000     0.041366   
H277     H      0.220930000000     0.533570000000     0.100830000000     0.041595   
H278     H      0.224130000000     0.535540000000     0.943420000000     0.041709   
H279     H      0.371180000000     0.587240000000     0.947670000000     0.0349687  
H280     H      0.136400000000     0.516610000000     0.098650000000     0.0325454  
H281     H      0.309120000000     0.525720000000     0.083870000000     0.0491007  
H282     H      0.189800000000     0.583630000000     0.965560000000     0.0489817  
H283     H      0.370160000000     0.578770000000     0.104460000000     0.0310211  
H284     H      0.172540000000     0.478680000000     0.972890000000     0.0247757  
H285     H      0.312370000000     0.529110000000     0.963680000000     0.0512428  
H286     H      0.186830000000     0.581690000000     0.078290000000     0.0502098  
H287     H      0.138150000000     0.521500000000     0.941410000000     0.0311352  
H288     H      0.340970000000     0.629840000000     0.983580000000     0.0234554  
H289     H      0.981650000000     0.452430000000     0.808380000000     0.0397175  
H290     H      0.990280000000     0.581540000000     0.657920000000     0.0264154  
H291     H      0.067810000000     0.530600000000     0.881100000000     0.0270264  
H292     H      0.062830000000     0.573910000000     0.806990000000     0.0393629  
H293     H      0.033910000000     0.592710000000     0.731320000000     0.0396389  
H294     H      0.954850000000     0.468500000000     0.731830000000     0.0393735  
H295     H      0.957460000000     0.469080000000     0.896530000000     0.0284481  
H296     H      0.051320000000     0.580810000000     0.641840000000     0.0288565  
H297     H      0.004030000000     0.593960000000     0.819330000000     0.0472267  
H298     H      0.014310000000     0.451330000000     0.718570000000     0.0466599  
H299     H      0.044280000000     0.586650000000     0.895860000000     0.0264977  
H300     H      0.946060000000     0.511050000000     0.658100000000     0.0263779  
H301     H      0.939560000000     0.498230000000     0.818180000000     0.046281   
H302     H      0.075040000000     0.546900000000     0.717700000000     0.046755   
H303     H      0.973850000000     0.457010000000     0.642450000000     0.0247296  
H304     H      0.019140000000     0.463450000000     0.884620000000     0.0250875  
H305     H      0.050440000000     0.588890000000     0.310140000000     0.0392282  
H306     H      0.995640000000     0.477140000000     0.157680000000     0.030632   
H307     H      0.943400000000     0.530030000000     0.384940000000     0.0275391  
H308     H      0.935640000000     0.497170000000     0.306810000000     0.0391861  
H309     H      0.949290000000     0.481130000000     0.229310000000     0.0391216  
H310     H      0.069110000000     0.569770000000     0.232760000000     0.0395285  
H311     H      0.064710000000     0.567530000000     0.397160000000     0.0277768  
H312     H      0.939050000000     0.499670000000     0.141110000000     0.0275409  
H313     H      0.986400000000     0.460180000000     0.312780000000     0.0460906  
H314     H      0.018470000000     0.605410000000     0.220400000000     0.047091   
H315     H      0.956010000000     0.469290000000     0.392230000000     0.0292463  
H316     H      0.062650000000     0.527370000000     0.158290000000     0.0276039  
H317     H      0.075240000000     0.531710000000     0.318510000000     0.0465797  
H318     H      0.929720000000     0.539680000000     0.217780000000     0.0466132  
H319     H      0.056150000000     0.587890000000     0.143860000000     0.0276689  
H320     H      0.005930000000     0.585550000000     0.383840000000     0.0300457  
N1       N      0.519240000000     0.037760000000     0.619520000000    -0.175428   
N2       N      0.516710000000     0.005810000000     0.851120000000    -0.17516    
N3       N      0.534440000000     0.962190000000     0.337180000000    -0.175031   
N4       N      0.524070000000     0.065250000000     0.138080000000    -0.175679   
N5       N      0.976490000000     0.979930000000     0.679450000000    -0.176538   
N6       N      0.006880000000     0.103710000000     0.896500000000    -0.176762   
N7       N      0.995930000000     0.968270000000     0.153400000000    -0.176304   
N8       N      0.988960000000     0.050090000000     0.395090000000    -0.176052   
N9       N      0.545770000000     0.136760000000     0.443410000000    -0.175132   
N10      N      0.538880000000     0.377880000000     0.497120000000    -0.188818   
N11      N      0.473280000000     0.636240000000     0.549970000000    -0.189914   
N12      N      0.508310000000     0.867060000000     0.512420000000    -0.175149   
N13      N      0.518490000000     0.171510000000     0.962960000000    -0.175745   
N14      N      0.455330000000     0.397910000000     0.030970000000    -0.190342   
N15      N      0.520930000000     0.897700000000     0.024240000000    -0.1752     
N16      N      0.548300000000     0.652480000000     0.014780000000    -0.189136   
N17      N      0.496670000000     0.521850000000     0.901970000000    -0.232158   
N18      N      0.521480000000     0.489840000000     0.643570000000    -0.230476   
N19      N      0.505440000000     0.527060000000     0.144450000000    -0.234236   
N20      N      0.497690000000     0.528260000000     0.404460000000    -0.233599   
N21      N      0.047000000000     0.383800000000     0.520460000000    -0.189192   
N22      N      0.988210000000     0.151040000000     0.568020000000    -0.175937   
N23      N      0.981140000000     0.646370000000     0.514120000000    -0.189592   
N24      N      0.975750000000     0.877570000000     0.508670000000    -0.175158   
N25      N      0.881850000000     0.479790000000     0.522450000000    -0.189817   
N26      N      0.641720000000     0.545430000000     0.518450000000    -0.190178   
N27      N      0.146100000000     0.552650000000     0.516890000000    -0.190083   
N28      N      0.378970000000     0.468720000000     0.528130000000    -0.190541   
N29      N      0.977800000000     0.162050000000     0.085360000000    -0.175248   
N30      N      0.988230000000     0.403780000000     0.033650000000    -0.189915   
N31      N      0.004180000000     0.673440000000     0.007010000000    -0.188044   
N32      N      0.026470000000     0.911930000000     0.962780000000    -0.175083   
N33      N      0.860220000000     0.552250000000     0.017610000000    -0.189271   
N34      N      0.626500000000     0.471560000000     0.021730000000    -0.190094   
N35      N      0.132540000000     0.521090000000     0.019940000000    -0.188958   
N36      N      0.374490000000     0.578270000000     0.025880000000    -0.189001   
N37      N      0.018440000000     0.515290000000     0.639760000000    -0.234276   
N38      N      0.994930000000     0.532100000000     0.898200000000    -0.233144   
N39      N      0.993630000000     0.549120000000     0.139630000000    -0.233368   
N40      N      0.014970000000     0.513060000000     0.397290000000    -0.232398   
O1       O      0.995580000000     0.476720000000     0.064600000000    -0.489574   
O2       O      0.009180000000     0.607770000000     0.053750000000    -0.480806   
O3       O      0.930830000000     0.549160000000     0.057250000000    -0.487023   
O4       O      0.063740000000     0.534300000000     0.060160000000    -0.482739   
O5       O      0.062500000000     0.528920000000     0.979630000000    -0.485125   
O6       O      0.928900000000     0.538570000000     0.977480000000    -0.480589   
O7       O      0.994920000000     0.600900000000     0.974850000000    -0.482184   
O8       O      0.987410000000     0.468560000000     0.984860000000    -0.477134   
O9       O      0.036160000000     0.453520000000     0.558450000000    -0.485484   
O10      O      0.002610000000     0.581530000000     0.556800000000    -0.483205   
O11      O      0.950210000000     0.500940000000     0.560470000000    -0.48761    
O12      O      0.079690000000     0.534910000000     0.559250000000    -0.484431   
O13      O      0.078060000000     0.530720000000     0.478880000000    -0.487916   
O14      O      0.948720000000     0.496220000000     0.480050000000    -0.482748   
O15      O      0.990870000000     0.576230000000     0.477160000000    -0.490688   
O16      O      0.025780000000     0.449060000000     0.478640000000    -0.4845     
O17      O      0.483960000000     0.463840000000     0.066090000000    -0.486368   
O18      O      0.529670000000     0.588190000000     0.060020000000    -0.48343    
O19      O      0.440300000000     0.551270000000     0.064620000000    -0.487168   
O20      O      0.565240000000     0.503670000000     0.063150000000    -0.482173   
O21      O      0.560140000000     0.496970000000     0.982990000000    -0.488174   
O22      O      0.437030000000     0.549050000000     0.983970000000    -0.480127   
O23      O      0.520400000000     0.585930000000     0.980010000000    -0.485456   
O24      O      0.469550000000     0.463750000000     0.986980000000    -0.485936   
O25      O      0.530700000000     0.438570000000     0.550640000000    -0.477268   
O26      O      0.498880000000     0.565310000000     0.575310000000    -0.489558   
O27      O      0.448240000000     0.486310000000     0.566070000000    -0.485643   
O28      O      0.577620000000     0.519970000000     0.560380000000    -0.48681    
O29      O      0.571520000000     0.530640000000     0.480860000000    -0.488617   
O30      O      0.443190000000     0.493370000000     0.486030000000    -0.485492   
O31      O      0.485020000000     0.576040000000     0.496800000000    -0.484566   
O32      O      0.521050000000     0.451030000000     0.471440000000    -0.48693    
O33      O      0.975570000000     0.969940000000     0.985950000000    -0.397893   
O34      O      0.950890000000     0.093540000000     0.053090000000    -0.400216   
O35      O      0.965810000000     0.065650000000     0.955880000000    -0.403682   
O36      O      0.959970000000     0.998270000000     0.085410000000    -0.401222   
O37      O      0.036980000000     0.008330000000     0.095210000000    -0.402671   
O38      O      0.043260000000     0.073730000000     0.964270000000    -0.400995   
O39      O      0.027890000000     0.103340000000     0.063200000000    -0.400548   
O40      O      0.052340000000     0.979350000000     0.997990000000    -0.401955   
O41      O      0.940100000000     0.948320000000     0.517540000000    -0.401436   
O42      O      0.946170000000     0.084920000000     0.552170000000    -0.402279   
O43      O      0.946440000000     0.033290000000     0.463820000000    -0.402596   
O44      O      0.940150000000     0.999870000000     0.607540000000    -0.400509   
O45      O      0.018230000000     0.995230000000     0.610120000000    -0.404812   
O46      O      0.024500000000     0.029450000000     0.467090000000    -0.402312   
O47      O      0.024210000000     0.080690000000     0.556880000000    -0.401263   
O48      O      0.018110000000     0.943880000000     0.522540000000    -0.401655   
O49      O      0.481480000000     0.965930000000     0.011130000000    -0.400802   
O50      O      0.480120000000     0.103130000000     0.977800000000    -0.401307   
O51      O      0.479150000000     0.019060000000     0.923670000000    -0.404033   
O52      O      0.482800000000     0.050720000000     0.067610000000    -0.402155   
O53      O      0.561010000000     0.050830000000     0.065680000000    -0.405645   
O54      O      0.557390000000     0.019680000000     0.921990000000    -0.402782   
O55      O      0.558400000000     0.104120000000     0.978840000000    -0.400329   
O56      O      0.559800000000     0.966330000000     0.010940000000    -0.399007   
O57      O      0.478990000000     0.938440000000     0.491890000000    -0.401904   
O58      O      0.497900000000     0.073480000000     0.454690000000    -0.400238   
O59      O      0.492160000000     0.986420000000     0.403400000000    -0.404396   
O60      O      0.484330000000     0.024460000000     0.545250000000    -0.402429   
O61      O      0.561870000000     0.016410000000     0.552420000000    -0.404791   
O62      O      0.569800000000     0.978950000000     0.410400000000    -0.401886   
O63      O      0.575200000000     0.065170000000     0.463620000000    -0.401417   
O64      O      0.556300000000     0.930130000000     0.501240000000    -0.400194   


