data_structure

_audit_creation_method RASPA-1.0
_audit_creation_date 2023-5-22
_audit_author_name 'Poobodin Mano'

_cell_length_a    28.2237
_cell_length_b    29.2406
_cell_length_c    29.1347
_cell_angle_alpha 89.9997
_cell_angle_beta  89.9991
_cell_angle_gamma 90.0049
_cell_volume      24044.2

_symmetry_cell_setting          triclinic
_symmetry_space_group_name_Hall 'P 1'
_symmetry_space_group_name_H-M  'P 1'
_symmetry_Int_Tables_number     1

_symmetry_equiv_pos_as_xyz 'x,y,z'

loop_
_atom_site_label
_atom_site_type_symbol
_atom_site_fract_x
_atom_site_fract_y
_atom_site_fract_z
_atom_site_charge
C1       C      0.985730000000     0.508700000000     0.964700000000     0.39966    
C2       C      0.998520000000     0.547960000000     0.143060000000     0.401014   
C3       C      0.992080000000     0.439880000000     0.074480000000     0.401338   
C4       C      0.992330000000     0.617570000000     0.033260000000     0.399842   
C5       C      0.989840000000     0.463240000000     0.453420000000     0.399661   
C6       C      0.981190000000     0.502990000000     0.631890000000     0.399856   
C7       C      0.983060000000     0.393990000000     0.563300000000     0.402362   
C8       C      0.987330000000     0.571260000000     0.521790000000     0.401705   
C9       C      0.998570000000     0.952480000000     0.001540000000     0.477493   
C10      C      0.993910000000     0.125950000000     0.991720000000     0.473778   
C11      C      0.999880000000     0.040630000000     0.909630000000     0.473018   
C12      C      0.989360000000     0.048530000000     0.083030000000     0.471825   
C13      C      0.981270000000     0.904760000000     0.495750000000     0.472078   
C14      C      0.985480000000     0.078220000000     0.489830000000     0.48161    
C15      C      0.983360000000     0.984080000000     0.406750000000     0.471497   
C16      C      0.983510000000     0.988290000000     0.580760000000     0.473976   
C17      C      0.513030000000     0.023270000000     0.105470000000     0.402689   
C18      C      0.486810000000     0.025420000000     0.924480000000     0.399815   
C19      C      0.592250000000     0.025140000000     0.002830000000     0.401622   
C20      C      0.405270000000     0.024830000000     0.027910000000     0.401572   
C21      C      0.498300000000     0.017750000000     0.604600000000     0.399735   
C22      C      0.456240000000     0.012530000000     0.426530000000     0.402721   
C23      C      0.570570000000     0.013660000000     0.494900000000     0.400782   
C24      C      0.386360000000     0.015240000000     0.534900000000     0.402287   
C25      C      0.486300000000     0.981350000000     0.852570000000     0.0112176  
C26      C      0.503930000000     0.064690000000     0.674380000000     0.0108254  
C27      C      0.504470000000     0.976360000000     0.677910000000     0.0107719  
C28      C      0.529870000000     0.064920000000     0.720480000000    -0.102418   
C29      C      0.461930000000     0.983240000000     0.805770000000    -0.102631   
C30      C      0.530170000000     0.980320000000     0.724000000000    -0.102129   
C31      C      0.479630000000     0.024970000000     0.780680000000     0.0214291  
C32      C      0.514030000000     0.023650000000     0.747410000000     0.0208795  
C33      C      0.487650000000     0.069500000000     0.852380000000     0.0106776  
C34      C      0.464110000000     0.068060000000     0.805010000000    -0.102555   
C35      C      0.527560000000     0.064080000000     0.178900000000     0.0133643  
C36      C      0.436750000000     0.969280000000     0.355520000000     0.0133155  
C37      C      0.430630000000     0.053630000000     0.356360000000     0.0145861  
C38      C      0.469180000000     0.969620000000     0.313340000000    -0.0995731  
C39      C      0.492110000000     0.063700000000     0.218600000000    -0.0998802  
C40      C      0.464170000000     0.059410000000     0.315750000000    -0.0999718  
C41      C      0.489030000000     0.017790000000     0.243850000000     0.0169117  
C42      C      0.471620000000     0.015560000000     0.287980000000     0.0168597  
C43      C      0.531300000000     0.979500000000     0.176270000000     0.013924   
C44      C      0.495860000000     0.974190000000     0.215540000000    -0.100004   
C45      C      0.122270000000     0.017700000000     0.459360000000     0.00207039 
C46      C      0.313840000000     0.973880000000     0.559150000000     0.0138824  
C47      C      0.308790000000     0.055110000000     0.534140000000     0.0123876  
C48      C      0.278260000000     0.958690000000     0.522640000000    -0.101107   
C49      C      0.171790000000     0.031630000000     0.474820000000    -0.0909468  
C50      C      0.273360000000     0.043080000000     0.496090000000    -0.100845   
C51      C      0.200050000000     0.992470000000     0.496040000000     0.0138161  
C52      C      0.247170000000     0.998400000000     0.506490000000     0.0179882  
C53      C      0.121500000000     0.945870000000     0.498630000000     0.00261832 
C54      C      0.174190000000     0.949090000000     0.511680000000    -0.0914883  
C55      C      0.847070000000     0.027350000000     0.527460000000    -0.00287294 
C56      C      0.640870000000     0.971050000000     0.466980000000     0.0132158  
C57      C      0.647190000000     0.054260000000     0.484630000000     0.0123492  
C58      C      0.684910000000     0.960100000000     0.495490000000    -0.101153   
C59      C      0.795810000000     0.039340000000     0.516060000000    -0.0894542  
C60      C      0.691330000000     0.046350000000     0.514310000000    -0.100955   
C61      C      0.765380000000     0.997750000000     0.504740000000     0.0124205  
C62      C      0.716810000000     0.001800000000     0.502160000000     0.0183075  
C63      C      0.843550000000     0.951450000000     0.497070000000    -0.0010585  
C64      C      0.789860000000     0.953960000000     0.488410000000    -0.0904984  
C65      C      0.332090000000     0.066640000000     0.049450000000     0.013207   
C66      C      0.133770000000     0.009200000000     0.970330000000    -0.00210387 
C67      C      0.133700000000     0.084730000000     0.001770000000     0.000502158
C68      C      0.184320000000     0.997810000000     0.984740000000    -0.0891505  
C69      C      0.291960000000     0.077780000000     0.016020000000    -0.101258   
C70      C      0.186780000000     0.083150000000     0.013580000000    -0.0907446  
C71      C      0.261190000000     0.036010000000     0.005750000000     0.0184084  
C72      C      0.213030000000     0.039610000000     0.999150000000     0.0125617  
C73      C      0.328340000000     0.983610000000     0.030200000000     0.0125341  
C74      C      0.288230000000     0.991800000000     0.995670000000    -0.101094   
C75      C      0.668620000000     0.983240000000     0.001150000000     0.0119389  
C76      C      0.859790000000     0.066350000000     0.955590000000    -0.00562382 
C77      C      0.861860000000     0.988660000000     0.981430000000    -0.00558107 
C78      C      0.806220000000     0.071230000000     0.959840000000    -0.0886649  
C79      C      0.703810000000     0.979350000000     0.961440000000    -0.102088   
C80      C      0.807660000000     0.984210000000     0.981190000000    -0.088958   
C81      C      0.732340000000     0.023330000000     0.957270000000     0.019295   
C82      C      0.780620000000     0.025520000000     0.962890000000     0.0121084  
C83      C      0.666460000000     0.068950000000     0.990980000000     0.0116778  
C84      C      0.701220000000     0.065290000000     0.950770000000    -0.102105   
C85      C      0.028010000000     0.968950000000     0.651450000000     0.0173105  
C86      C      0.961140000000     0.061930000000     0.836680000000     0.0183724  
C87      C      0.047090000000     0.043880000000     0.837770000000     0.016824   
C88      C      0.951570000000     0.030400000000     0.796190000000    -0.102035   
C89      C      0.036580000000     0.998910000000     0.693660000000    -0.101219   
C90      C      0.042590000000     0.014400000000     0.794330000000    -0.101331   
C91      C      0.992230000000     0.007490000000     0.722520000000     0.0169553  
C92      C      0.995900000000     0.020120000000     0.768010000000     0.0170417  
C93      C      0.940970000000     0.980990000000     0.654780000000     0.0177592  
C94      C      0.945110000000     0.011910000000     0.696870000000    -0.101744   
C95      C      0.938590000000     0.971560000000     0.334380000000     0.0166527  
C96      C      0.027880000000     0.066320000000     0.157440000000     0.0177831  
C97      C      0.940450000000     0.059850000000     0.152990000000     0.0169142  
C98      C      0.031010000000     0.032880000000     0.197580000000    -0.101147   
C99      C      0.936520000000     0.004350000000     0.293360000000    -0.101436   
C100     C      0.938440000000     0.027430000000     0.194230000000    -0.101225   
C101     C      0.983340000000     0.009460000000     0.267180000000     0.017023   
C102     C      0.983980000000     0.025800000000     0.222770000000     0.0169314  
C103     C      0.026450000000     0.970950000000     0.333810000000     0.0184479  
C104     C      0.029210000000     0.005720000000     0.294880000000    -0.101602   
C105     C      0.935390000000     0.834850000000     0.510280000000     0.0174397  
C106     C      0.031280000000     0.644440000000     0.515430000000     0.0124033  
C107     C      0.947260000000     0.638560000000     0.487750000000     0.0121545  
C108     C      0.019230000000     0.687810000000     0.542360000000    -0.10066    
C109     C      0.934410000000     0.784480000000     0.495960000000    -0.104012   
C110     C      0.934260000000     0.683320000000     0.511930000000    -0.100691   
C111     C      0.978700000000     0.758930000000     0.511010000000     0.018238   
C112     C      0.977980000000     0.712850000000     0.519850000000     0.0163697  
C113     C      0.022340000000     0.830750000000     0.486740000000     0.0176004  
C114     C      0.024170000000     0.786520000000     0.514790000000    -0.103236   
C115     C      0.941560000000     0.150620000000     0.489020000000     0.0176065  
C116     C      0.024300000000     0.321710000000     0.583950000000     0.0138908  
C117     C      0.937430000000     0.322220000000     0.573540000000     0.0136896  
C118     C      0.031400000000     0.285180000000     0.546960000000    -0.0989309  
C119     C      0.948210000000     0.201590000000     0.479120000000    -0.104539   
C120     C      0.938990000000     0.287350000000     0.534460000000    -0.0993667  
C121     C      0.988700000000     0.220660000000     0.507840000000     0.0193678  
C122     C      0.985740000000     0.261030000000     0.531780000000     0.0158325  
C123     C      0.031270000000     0.149540000000     0.477990000000     0.0171122  
C124     C      0.034560000000     0.193210000000     0.507030000000    -0.102846   
C125     C      0.937040000000     0.487200000000     0.896870000000     0.0107488  
C126     C      0.023070000000     0.516800000000     0.705350000000     0.0127982  
C127     C      0.934710000000     0.526070000000     0.700700000000     0.0106258  
C128     C      0.017930000000     0.487440000000     0.748260000000    -0.10124    
C129     C      0.930620000000     0.512580000000     0.850960000000    -0.100863   
C130     C      0.928860000000     0.501530000000     0.747200000000    -0.100887   
C131     C      0.975310000000     0.510550000000     0.821670000000     0.017301   
C132     C      0.974480000000     0.502280000000     0.775230000000     0.0174604  
C133     C      0.025500000000     0.494160000000     0.890240000000     0.0125443  
C134     C      0.020050000000     0.523850000000     0.847540000000    -0.10104    
C135     C      0.960150000000     0.565560000000     0.217720000000     0.0138025  
C136     C      0.038710000000     0.457670000000     0.383770000000     0.0121527  
C137     C      0.949730000000     0.445100000000     0.379800000000     0.012534   
C138     C      0.034630000000     0.452760000000     0.331430000000    -0.101657   
C139     C      0.952170000000     0.525710000000     0.250770000000    -0.0993045  
C140     C      0.946940000000     0.477270000000     0.338340000000    -0.100697   
C141     C      0.997480000000     0.508360000000     0.274060000000     0.0164091  
C142     C      0.993960000000     0.481790000000     0.312910000000     0.0182418  
C143     C      0.046560000000     0.552730000000     0.214350000000     0.0128639  
C144     C      0.044320000000     0.512200000000     0.247750000000    -0.0989933  
C145     C      0.948980000000     0.690790000000     0.023830000000     0.0121357  
C146     C      0.043580000000     0.882650000000     0.019540000000     0.0172215  
C147     C      0.958180000000     0.878140000000     0.991440000000     0.0172634  
C148     C      0.045550000000     0.832150000000     0.005420000000    -0.103866   
C149     C      0.958960000000     0.735650000000     0.049050000000    -0.101391   
C150     C      0.954950000000     0.833960000000     0.019570000000    -0.103779   
C151     C      0.000990000000     0.760340000000     0.027580000000     0.0170281  
C152     C      0.000620000000     0.806420000000     0.018310000000     0.0184397  
C153     C      0.034520000000     0.684610000000     0.000900000000     0.0118986  
C154     C      0.045400000000     0.731090000000     0.022910000000    -0.100781   
C155     C      0.948650000000     0.368280000000     0.093260000000     0.0132362  
C156     C      0.036160000000     0.199950000000     0.983270000000     0.0182701  
C157     C      0.948380000000     0.198400000000     0.985490000000     0.0177876  
C158     C      0.039020000000     0.235290000000     0.021840000000    -0.101482   
C159     C      0.945620000000     0.328940000000     0.058660000000    -0.0993325  
C160     C      0.946370000000     0.234020000000     0.023950000000    -0.101707   
C161     C      0.992390000000     0.303430000000     0.050730000000     0.0160067  
C162     C      0.992490000000     0.260980000000     0.030070000000     0.017493   
C163     C      0.036180000000     0.368530000000     0.092140000000     0.0141289  
C164     C      0.038830000000     0.329850000000     0.056960000000    -0.0992054  
Cu1      Cu     0.035720000000     0.527950000000     0.051010000000     0.840932   
Cu2      Cu     0.948480000000     0.529410000000     0.056660000000     0.83504    
Cu3      Cu     0.029000000000     0.482280000000     0.544980000000     0.840017   
Cu4      Cu     0.941680000000     0.483100000000     0.540450000000     0.838605   
Cu5      Cu     0.945110000000     0.037830000000     0.993720000000     1.19396    
Cu6      Cu     0.045470000000     0.040270000000     0.999560000000     1.19489    
Cu7      Cu     0.933000000000     0.992920000000     0.494710000000     1.18969    
Cu8      Cu     0.033320000000     0.990230000000     0.492640000000     1.20976    
Cu9      Cu     0.498770000000     0.982480000000     0.014630000000     0.841791   
Cu10     Cu     0.498790000000     0.066890000000     0.015690000000     0.840217   
Cu11     Cu     0.478390000000     0.972580000000     0.516550000000     0.838906   
Cu12     Cu     0.478540000000     0.056960000000     0.513990000000     0.841495   
H1       H      0.466300000000     0.950580000000     0.787180000000     0.0428426  
H2       H      0.466190000000     0.074000000000     0.680230000000     0.030786   
H3       H      0.525900000000     0.077540000000     0.847910000000     0.0294727  
H4       H      0.470900000000     0.100200000000     0.786270000000     0.0428039  
H5       H      0.525150000000     0.098090000000     0.737990000000     0.0425203  
H6       H      0.525840000000     0.948800000000     0.744490000000     0.0425667  
H7       H      0.469910000000     0.953100000000     0.872600000000     0.035221   
H8       H      0.519620000000     0.091960000000     0.652530000000     0.0351877  
H9       H      0.425020000000     0.067140000000     0.809830000000     0.0494083  
H10      H      0.568920000000     0.982440000000     0.717300000000     0.0489007  
H11      H      0.471710000000     0.098160000000     0.872160000000     0.0352312  
H12      H      0.466850000000     0.967030000000     0.684380000000     0.0300615  
H13      H      0.423070000000     0.986400000000     0.811310000000     0.0496254  
H14      H      0.568620000000     0.062540000000     0.713880000000     0.0488089  
H15      H      0.520640000000     0.947660000000     0.658340000000     0.0350372  
H16      H      0.524270000000     0.972440000000     0.847530000000     0.0297666  
H17      H      0.503680000000     0.091630000000     0.241830000000     0.0422615  
H18      H      0.399400000000     0.966700000000     0.343540000000     0.0255038  
H19      H      0.567600000000     0.980510000000     0.191190000000     0.0258608  
H20      H      0.509640000000     0.945630000000     0.236770000000     0.0421722  
H21      H      0.455490000000     0.942210000000     0.290540000000     0.0420876  
H22      H      0.448310000000     0.086860000000     0.294360000000     0.0420929  
H23      H      0.522340000000     0.095730000000     0.158400000000     0.0351813  
H24      H      0.444420000000     0.938330000000     0.376380000000     0.0347007  
H25      H      0.460960000000     0.963880000000     0.201190000000     0.0514688  
H26      H      0.499140000000     0.071350000000     0.328580000000     0.0520175  
H27      H      0.529350000000     0.948850000000     0.153790000000     0.0351264  
H28      H      0.393840000000     0.050770000000     0.342880000000     0.0246605  
H29      H      0.456360000000     0.072290000000     0.205120000000     0.0506289  
H30      H      0.505630000000     0.960250000000     0.324320000000     0.0502487  
H31      H      0.432040000000     0.084810000000     0.378140000000     0.0344296  
H32      H      0.563970000000     0.065330000000     0.193520000000     0.0263051  
H33      H      0.190710000000     0.045420000000     0.444330000000     0.039808   
H34      H      0.293910000000     0.981880000000     0.591120000000     0.025528   
H35      H      0.117220000000     0.927420000000     0.465450000000     0.0260149  
H36      H      0.191980000000     0.918490000000     0.497000000000     0.040007   
H37      H      0.258120000000     0.929900000000     0.537760000000     0.0419656  
H38      H      0.249430000000     0.072930000000     0.492690000000     0.0421097  
H39      H      0.101470000000     0.049060000000     0.452390000000     0.0281365  
H40      H      0.338340000000     0.945190000000     0.567110000000     0.0343642  
H41      H      0.176680000000     0.947200000000     0.549740000000     0.0450444  
H42      H      0.292660000000     0.039110000000     0.463080000000     0.051218   
H43      H      0.102920000000     0.925560000000     0.525340000000     0.0273055  
H44      H      0.288590000000     0.064270000000     0.565630000000     0.0268305  
H45      H      0.168130000000     0.059320000000     0.500750000000     0.0470719  
H46      H      0.297900000000     0.945110000000     0.492510000000     0.0529171  
H47      H      0.329580000000     0.085610000000     0.523500000000     0.0350209  
H48      H      0.123910000000     0.997900000000     0.426730000000     0.0265236  
H49      H      0.781280000000     0.057650000000     0.546390000000     0.0393696  
H50      H      0.652230000000     0.976650000000     0.430830000000     0.0260716  
H51      H      0.850750000000     0.936790000000     0.531660000000     0.0271498  
H52      H      0.774220000000     0.923780000000     0.505920000000     0.0396341  
H53      H      0.702710000000     0.931440000000     0.477610000000     0.0419964  
H54      H      0.713960000000     0.076970000000     0.509460000000     0.0421029  
H55      H      0.867920000000     0.059440000000     0.528050000000     0.0299765  
H56      H      0.616910000000     0.940880000000     0.467110000000     0.0349869  
H57      H      0.783580000000     0.950550000000     0.450880000000     0.0454312  
H58      H      0.680720000000     0.044960000000     0.551020000000     0.0505899  
H59      H      0.859160000000     0.927880000000     0.471310000000     0.0281254  
H60      H      0.658860000000     0.062280000000     0.449050000000     0.0272312  
H61      H      0.795530000000     0.062900000000     0.486090000000     0.0468473  
H62      H      0.673710000000     0.947600000000     0.529840000000     0.0516868  
H63      H      0.627800000000     0.084510000000     0.498070000000     0.0350624  
H64      H      0.849410000000     0.011950000000     0.562360000000     0.0285593  
H65      H      0.272150000000     0.106560000000     0.031570000000     0.0419629  
H66      H      0.133520000000     0.025190000000     0.935620000000     0.0278945  
H67      H      0.312320000000     0.975210000000     0.064070000000     0.0271284  
H68      H      0.265500000000     0.960930000000     0.997080000000     0.0421684  
H69      H      0.201400000000     0.980590000000     0.955010000000     0.0393408  
H70      H      0.203150000000     0.113420000000     0.996840000000     0.0396898  
H71      H      0.355770000000     0.096850000000     0.052530000000     0.0349629  
H72      H      0.113370000000     0.976910000000     0.967890000000     0.0277868  
H73      H      0.303390000000     0.994080000000     0.960540000000     0.0508541  
H74      H      0.190530000000     0.086920000000     0.051400000000     0.0453697  
H75      H      0.349340000000     0.953510000000     0.018850000000     0.0351107  
H76      H      0.128360000000     0.099580000000     0.966950000000     0.0260049  
H77      H      0.307400000000     0.090190000000     0.983210000000     0.0518925  
H78      H      0.182920000000     0.973470000000     0.014050000000     0.0471392  
H79      H      0.115900000000     0.107700000000     0.026750000000     0.0288704  
H80      H      0.316260000000     0.060520000000     0.083890000000     0.0259669  
H81      H      0.724980000000     0.947980000000     0.966520000000     0.0420029  
H82      H      0.869100000000     0.053940000000     0.920610000000     0.0303449  
H83      H      0.686870000000     0.076370000000     0.022790000000     0.0283735  
H84      H      0.720570000000     0.098100000000     0.948380000000     0.0421065  
H85      H      0.794480000000     0.090340000000     0.928910000000     0.0388253  
H86      H      0.799910000000     0.953610000000     0.959950000000     0.0391417  
H87      H      0.646320000000     0.951930000000     0.001860000000     0.0356126  
H88      H      0.875770000000     0.100670000000     0.959900000000     0.0305618  
H89      H      0.680900000000     0.061490000000     0.918300000000     0.0503634  
H90      H      0.795410000000     0.977520000000     0.016850000000     0.0455483  
H91      H      0.642570000000     0.098480000000     0.984580000000     0.0357906  
H92      H      0.876660000000     0.976690000000     0.948090000000     0.0278752  
H93      H      0.683700000000     0.974210000000     0.929030000000     0.0508131  
H94      H      0.797860000000     0.091700000000     0.990980000000     0.0472197  
H95      H      0.875410000000     0.965720000000     0.008770000000     0.0296175  
H96      H      0.688920000000     0.984330000000     0.033860000000     0.0273285  
H97      H      0.064370000000     0.980860000000     0.713550000000     0.0420451  
H98      H      0.968970000000     0.096730000000     0.823170000000     0.0243491  
H99      H      0.935240000000     0.945240000000     0.666680000000     0.024798   
H100     H      0.914670000000     0.002250000000     0.718930000000     0.0418958  
H101     H      0.924180000000     0.048350000000     0.775680000000     0.0419195  
H102     H      0.073470000000     0.023930000000     0.772810000000     0.0420434  
H103     H      0.059940000000     0.970430000000     0.629150000000     0.0348617  
H104     H      0.928360000000     0.064650000000     0.857600000000     0.0321836  
H105     H      0.940630000000     0.048110000000     0.686050000000     0.0498144  
H106     H      0.046190000000     0.977810000000     0.804070000000     0.0488278  
H107     H      0.909090000000     0.991310000000     0.634900000000     0.0326889  
H108     H      0.056900000000     0.079240000000     0.827300000000     0.0252207  
H109     H      0.050930000000     0.032480000000     0.682390000000     0.0506571  
H110     H      0.936500000000     0.997650000000     0.808920000000     0.050809   
H111     H      0.076540000000     0.030260000000     0.859100000000     0.0316083  
H112     H      0.024070000000     0.932890000000     0.663070000000     0.0247442  
H113     H      0.908060000000     0.990710000000     0.270950000000     0.0424876  
H114     H      0.024450000000     0.101550000000     0.171530000000     0.0247908  
H115     H      0.026150000000     0.936040000000     0.318580000000     0.0250277  
H116     H      0.059320000000     0.994280000000     0.273240000000     0.042346   
H117     H      0.058470000000     0.047310000000     0.220700000000     0.0422257  
H118     H      0.907910000000     0.039370000000     0.215010000000     0.042426   
H119     H      0.906520000000     0.976740000000     0.355920000000     0.0348274  
H120     H      0.061550000000     0.064920000000     0.137700000000     0.0353242  
H121     H      0.037810000000     0.039900000000     0.309340000000     0.0505725  
H122     H      0.930680000000     0.992290000000     0.181760000000     0.0505205  
H123     H      0.058980000000     0.973820000000     0.355120000000     0.0334888  
H124     H      0.936300000000     0.095490000000     0.165780000000     0.024938   
H125     H      0.925590000000     0.038710000000     0.305750000000     0.0501911  
H126     H      0.043560000000     0.999220000000     0.184680000000     0.0514216  
H127     H      0.909820000000     0.052640000000     0.130120000000     0.0356993  
H128     H      0.937300000000     0.935890000000     0.321090000000     0.0250101  
H129     H      0.902110000000     0.770000000000     0.512130000000     0.0425677  
H130     H      0.044850000000     0.654440000000     0.481010000000     0.0277174  
H131     H      0.055550000000     0.850210000000     0.493120000000     0.0319851  
H132     H      0.030860000000     0.794840000000     0.551450000000     0.0496305  
H133     H      0.051900000000     0.708320000000     0.546380000000     0.0419536  
H134     H      0.907210000000     0.699850000000     0.489930000000     0.0420011  
H135     H      0.904300000000     0.852270000000     0.494620000000     0.0305328  
H136     H      0.060000000000     0.625900000000     0.533750000000     0.0351695  
H137     H      0.054670000000     0.766800000000     0.501050000000     0.0430459  
H138     H      0.917660000000     0.675550000000     0.545630000000     0.0507367  
H139     H      0.021770000000     0.822010000000     0.449580000000     0.0273971  
H140     H      0.956830000000     0.646700000000     0.451610000000     0.0266117  
H141     H      0.930940000000     0.781990000000     0.458040000000     0.0492614  
H142     H      0.008290000000     0.677920000000     0.577660000000     0.0516173  
H143     H      0.915490000000     0.616140000000     0.486600000000     0.0353631  
H144     H      0.930960000000     0.837290000000     0.548140000000     0.0282183  
H145     H      0.957360000000     0.206090000000     0.442290000000     0.049364   
H146     H      0.019740000000     0.304120000000     0.617540000000     0.0254316  
H147     H      0.032630000000     0.159170000000     0.441080000000     0.0248542  
H148     H      0.063870000000     0.214440000000     0.493030000000     0.0425364  
H149     H      0.057690000000     0.260580000000     0.560870000000     0.0419804  
H150     H      0.908970000000     0.263730000000     0.541030000000     0.0423462  
H151     H      0.925830000000     0.146250000000     0.523760000000     0.0294595  
H152     H      0.056660000000     0.343240000000     0.586460000000     0.0345155  
H153     H      0.043580000000     0.183060000000     0.542760000000     0.050001   
H154     H      0.933000000000     0.305240000000     0.501290000000     0.0512727  
H155     H      0.063000000000     0.128130000000     0.484980000000     0.0330228  
H156     H      0.933800000000     0.303360000000     0.606550000000     0.025624   
H157     H      0.913650000000     0.218700000000     0.483860000000     0.0426183  
H158     H      0.047320000000     0.301740000000     0.516270000000     0.051196   
H159     H      0.905490000000     0.344090000000     0.569560000000     0.0349712  
H160     H      0.915640000000     0.136280000000     0.464090000000     0.0303082  
H161     H      0.899730000000     0.496270000000     0.834140000000     0.0422878  
H162     H      0.028700000000     0.552960000000     0.715890000000     0.0273006  
H163     H      0.029900000000     0.457920000000     0.879420000000     0.0275658  
H164     H      0.053300000000     0.522880000000     0.827740000000     0.042611   
H165     H      0.051770000000     0.487490000000     0.767120000000     0.0427843  
H166     H      0.899180000000     0.519170000000     0.764690000000     0.0423159  
H167     H      0.906210000000     0.494930000000     0.919290000000     0.0358226  
H168     H      0.055170000000     0.505500000000     0.686400000000     0.035782   
H169     H      0.016290000000     0.560080000000     0.858570000000     0.0523841  
H170     H      0.918360000000     0.465380000000     0.741210000000     0.049717   
H171     H      0.058310000000     0.504630000000     0.908520000000     0.0355277  
H172     H      0.935080000000     0.563560000000     0.707180000000     0.0272535  
H173     H      0.921740000000     0.548990000000     0.857740000000     0.049829   
H174     H      0.012640000000     0.451300000000     0.737520000000     0.0529186  
H175     H      0.903140000000     0.518670000000     0.679140000000     0.035802   
H176     H      0.936310000000     0.449820000000     0.889790000000     0.0271904  
H177     H      0.925670000000     0.537630000000     0.276240000000     0.042311   
H178     H      0.062500000000     0.430530000000     0.397330000000     0.0305036  
H179     H      0.052140000000     0.584540000000     0.234630000000     0.0263464  
H180     H      0.074360000000     0.517350000000     0.271760000000     0.0427223  
H181     H      0.027190000000     0.416410000000     0.322890000000     0.048147   
H182     H      0.919150000000     0.464030000000     0.314780000000     0.0425073  
H183     H      0.927550000000     0.571390000000     0.197120000000     0.0344108  
H184     H      0.055830000000     0.491010000000     0.391850000000     0.0342525  
H185     H      0.050120000000     0.479960000000     0.228330000000     0.0508492  
H186     H      0.936060000000     0.511570000000     0.351000000000     0.0508119  
H187     H      0.077660000000     0.548530000000     0.191340000000     0.0351595  
H188     H      0.951880000000     0.409270000000     0.367140000000     0.0259536  
H189     H      0.936260000000     0.496830000000     0.231320000000     0.0520492  
H190     H      0.069740000000     0.460380000000     0.316530000000     0.0424216  
H191     H      0.916430000000     0.447990000000     0.399930000000     0.0352198  
H192     H      0.966530000000     0.596970000000     0.238390000000     0.0254756  
H193     H      0.925790000000     0.755760000000     0.050120000000     0.0420849  
H194     H      0.045680000000     0.885150000000     0.057590000000     0.0293266  
H195     H      0.027340000000     0.690290000000     0.963780000000     0.0266979  
H196     H      0.072870000000     0.747070000000     0.000960000000     0.0420691  
H197     H      0.077020000000     0.817770000000     0.023130000000     0.042783   
H198     H      0.946220000000     0.842420000000     0.055790000000     0.0497488  
H199     H      0.919550000000     0.672840000000     0.041680000000     0.0352395  
H200     H      0.075530000000     0.900140000000     0.005670000000     0.0315153  
H201     H      0.060840000000     0.725660000000     0.057580000000     0.0506152  
H202     H      0.925310000000     0.814060000000     0.004390000000     0.0428584  
H203     H      0.066640000000     0.662760000000     0.003210000000     0.0356076  
H204     H      0.924640000000     0.897480000000     0.996030000000     0.0304543  
H205     H      0.967960000000     0.727750000000     0.085350000000     0.0517278  
H206     H      0.051020000000     0.829600000000     0.967730000000     0.0489618  
H207     H      0.960790000000     0.869260000000     0.954400000000     0.026351   
H208     H      0.937010000000     0.698840000000     0.988360000000     0.0274808  
H209     H      0.917970000000     0.305530000000     0.072190000000     0.0418984  
H210     H      0.035140000000     0.218490000000     0.949920000000     0.0244257  
H211     H      0.036310000000     0.353100000000     0.127080000000     0.0248473  
H212     H      0.067600000000     0.306980000000     0.069180000000     0.0416757  
H213     H      0.068100000000     0.258760000000     0.011770000000     0.0420451  
H214     H      0.916220000000     0.256690000000     0.015080000000     0.0422752  
H215     H      0.916210000000     0.389640000000     0.090500000000     0.0347672  
H216     H      0.068910000000     0.178840000000     0.983540000000     0.0318448  
H217     H      0.049340000000     0.344410000000     0.023220000000     0.0514226  
H218     H      0.938080000000     0.216490000000     0.056840000000     0.0510293  
H219     H      0.068430000000     0.390150000000     0.089240000000     0.0344685  
H220     H      0.946760000000     0.216660000000     0.952010000000     0.0240846  
H221     H      0.933330000000     0.342820000000     0.025190000000     0.0506316  
H222     H      0.049320000000     0.217780000000     0.054210000000     0.0505537  
H223     H      0.916540000000     0.176160000000     0.987740000000     0.0327058  
H224     H      0.949290000000     0.353420000000     0.128430000000     0.0252211  
N1       N      0.505730000000     0.019510000000     0.651020000000    -0.174186   
N2       N      0.483400000000     0.025540000000     0.877580000000    -0.174336   
N3       N      0.442490000000     0.011790000000     0.381540000000    -0.175654   
N4       N      0.522530000000     0.022330000000     0.151490000000    -0.175307   
N5       N      0.338800000000     0.015210000000     0.543730000000    -0.175554   
N6       N      0.099900000000     0.991170000000     0.495880000000    -0.237022   
N7       N      0.617700000000     0.012860000000     0.483780000000    -0.174754   
N8       N      0.866050000000     0.996280000000     0.492660000000    -0.232361   
N9       N      0.112170000000     0.039340000000     0.004430000000    -0.233514   
N10      N      0.357320000000     0.025100000000     0.034880000000    -0.175055   
N11      N      0.877930000000     0.035340000000     0.990870000000    -0.230836   
N12      N      0.640380000000     0.025560000000     0.997150000000    -0.174912   
N13      N      0.002150000000     0.045690000000     0.863000000000    -0.188712   
N14      N      0.984530000000     0.982640000000     0.627390000000    -0.188754   
N15      N      0.986150000000     0.056080000000     0.129290000000    -0.187898   
N16      N      0.982750000000     0.977660000000     0.360220000000    -0.1882     
N17      N      0.988280000000     0.616470000000     0.509850000000    -0.175186   
N18      N      0.979840000000     0.858040000000     0.497410000000    -0.189413   
N19      N      0.981630000000     0.348470000000     0.573980000000    -0.175472   
N20      N      0.986490000000     0.124870000000     0.486630000000    -0.190948   
N21      N      0.979470000000     0.513570000000     0.677690000000    -0.17452    
N22      N      0.982710000000     0.498320000000     0.918920000000    -0.174485   
N23      N      0.992410000000     0.455090000000     0.407220000000    -0.174771   
N24      N      0.001790000000     0.556380000000     0.189150000000    -0.174612   
N25      N      0.999910000000     0.905720000000     0.004120000000    -0.190586   
N26      N      0.992430000000     0.662960000000     0.021590000000    -0.174499   
N27      N      0.992870000000     0.172580000000     0.987910000000    -0.189099   
N28      N      0.992250000000     0.394480000000     0.085890000000    -0.17527    
O1       O      0.026580000000     0.512980000000     0.983590000000    -0.400153   
O2       O      0.036370000000     0.542770000000     0.119180000000    -0.399425   
O3       O      0.031430000000     0.460510000000     0.066880000000    -0.400411   
O4       O      0.031610000000     0.595560000000     0.035410000000    -0.39954    
O5       O      0.952930000000     0.597140000000     0.041330000000    -0.398807   
O6       O      0.952650000000     0.461610000000     0.071750000000    -0.399084   
O7       O      0.957600000000     0.544550000000     0.124150000000    -0.3992     
O8       O      0.947830000000     0.513920000000     0.988520000000    -0.398277   
O9       O      0.028180000000     0.468500000000     0.476570000000    -0.39927    
O10      O      0.021470000000     0.496480000000     0.612580000000    -0.401019   
O11      O      0.023120000000     0.414440000000     0.559430000000    -0.399375   
O12      O      0.026180000000     0.550240000000     0.530670000000    -0.399721   
O13      O      0.947570000000     0.550070000000     0.523480000000    -0.401386   
O14      O      0.944210000000     0.415880000000     0.557080000000    -0.401656   
O15      O      0.942750000000     0.499820000000     0.608470000000    -0.397704   
O16      O      0.949310000000     0.466510000000     0.473120000000    -0.399293   
O17      O      0.960040000000     0.972850000000     0.992450000000    -0.490721   
O18      O      0.955350000000     0.103510000000     0.993510000000    -0.477339   
O19      O      0.959840000000     0.042220000000     0.929470000000    -0.488298   
O20      O      0.951960000000     0.041610000000     0.059640000000    -0.481739   
O21      O      0.029630000000     0.049750000000     0.063420000000    -0.478051   
O22      O      0.037720000000     0.036570000000     0.933130000000    -0.482496   
O23      O      0.033440000000     0.105150000000     0.992880000000    -0.480751   
O24      O      0.035930000000     0.975510000000     0.008280000000    -0.489608   
O25      O      0.943240000000     0.927600000000     0.500620000000    -0.480948   
O26      O      0.946040000000     0.057620000000     0.492030000000    -0.49248    
O27      O      0.944570000000     0.985930000000     0.429120000000    -0.478787   
O28      O      0.944100000000     0.993230000000     0.560170000000    -0.48221    
O29      O      0.021890000000     0.986480000000     0.557980000000    -0.487607   
O30      O      0.022830000000     0.986830000000     0.427590000000    -0.48506    
O31      O      0.023750000000     0.055590000000     0.490010000000    -0.493902   
O32      O      0.020520000000     0.925200000000     0.489610000000    -0.480812   
O33      O      0.508440000000     0.985570000000     0.083440000000    -0.402057   
O34      O      0.489870000000     0.987210000000     0.945900000000    -0.402246   
O35      O      0.570110000000     0.986910000000     0.006060000000    -0.399993   
O36      O      0.427310000000     0.986670000000     0.023270000000    -0.399216   
O37      O      0.427930000000     0.062810000000     0.026290000000    -0.401443   
O38      O      0.569610000000     0.063090000000     0.005300000000    -0.401852   
O39      O      0.488620000000     0.063410000000     0.946600000000    -0.399041   
O40      O      0.509660000000     0.061760000000     0.084490000000    -0.399754   
O41      O      0.494980000000     0.978900000000     0.584230000000    -0.398883   
O42      O      0.461160000000     0.974900000000     0.448750000000    -0.399571   
O43      O      0.547990000000     0.975880000000     0.499600000000    -0.400758   
O44      O      0.408820000000     0.977160000000     0.533100000000    -0.401455   
O45      O      0.408010000000     0.053200000000     0.527780000000    -0.399771   
O46      O      0.549150000000     0.052080000000     0.500150000000    -0.398603   
O47      O      0.463220000000     0.051050000000     0.446430000000    -0.402689   
O48      O      0.492970000000     0.055060000000     0.582010000000    -0.401932   


