data_structure

_audit_creation_method RASPA-1.0
_audit_creation_date 2023-5-22
_audit_author_name 'Poobodin Mano'

_cell_length_a    42.9988
_cell_length_b    43.1174
_cell_length_c    29.0145
_cell_angle_alpha 90
_cell_angle_beta  90
_cell_angle_gamma 90
_cell_volume      53792.8

_symmetry_cell_setting          triclinic
_symmetry_space_group_name_Hall 'P 1'
_symmetry_space_group_name_H-M  'P 1'
_symmetry_Int_Tables_number     1

_symmetry_equiv_pos_as_xyz 'x,y,z'

loop_
_atom_site_label
_atom_site_type_symbol
_atom_site_fract_x
_atom_site_fract_y
_atom_site_fract_z
_atom_site_charge
C1       C      0.555210000000     0.850420000000     0.056150000000     0.401705   
C2       C      0.432700000000     0.848680000000     0.030130000000     0.402096   
C3       C      0.484690000000     0.857930000000     0.132730000000     0.401344   
C4       C      0.502250000000     0.840540000000     0.952970000000     0.400064   
C5       C      0.406720000000     0.857180000000     0.554160000000     0.400668   
C6       C      0.529020000000     0.842070000000     0.533700000000     0.400385   
C7       C      0.462410000000     0.859280000000     0.453900000000     0.400703   
C8       C      0.474070000000     0.840450000000     0.634420000000     0.400722   
C9       C      0.855860000000     0.587190000000     0.027710000000     0.40155    
C10      C      0.859230000000     0.464660000000     0.050460000000     0.400426   
C11      C      0.848880000000     0.534180000000     0.129260000000     0.402167   
C12      C      0.866220000000     0.518390000000     0.948920000000     0.400287   
C13      C      0.872920000000     0.419740000000     0.538920000000     0.401337   
C14      C      0.851270000000     0.541170000000     0.527900000000     0.400693   
C15      C      0.854520000000     0.474400000000     0.442730000000     0.40189    
C16      C      0.869700000000     0.485760000000     0.624230000000     0.400204   
C17      C      0.618470000000     0.201770000000     0.020790000000     0.401645   
C18      C      0.501920000000     0.212410000000     0.961450000000     0.403737   
C19      C      0.538940000000     0.203830000000     0.077300000000     0.401682   
C20      C      0.581070000000     0.210960000000     0.904850000000     0.40169    
C21      C      0.499450000000     0.225910000000     0.475570000000     0.401541   
C22      C      0.618950000000     0.200870000000     0.505730000000     0.400872   
C23      C      0.569410000000     0.208730000000     0.400700000000     0.401197   
C24      C      0.548930000000     0.217820000000     0.581360000000     0.401217   
C25      C      0.189530000000     0.563880000000     0.036290000000     0.401469   
C26      C      0.206650000000     0.442000000000     0.022290000000     0.401387   
C27      C      0.196270000000     0.497830000000     0.121280000000     0.400926   
C28      C      0.200610000000     0.506970000000     0.938100000000     0.400669   
C29      C      0.202760000000     0.506650000000     0.528170000000     0.401734   
C30      C      0.184440000000     0.628730000000     0.526820000000     0.401903   
C31      C      0.189160000000     0.566690000000     0.435290000000     0.400825   
C32      C      0.197490000000     0.569860000000     0.618630000000     0.400917   
C33      C      0.855050000000     0.804790000000     0.999150000000     0.402199   
C34      C      0.816370000000     0.919450000000     0.035760000000     0.402628   
C35      C      0.776880000000     0.842220000000     0.017690000000     0.401648   
C36      C      0.894230000000     0.881740000000     0.016830000000     0.402522   
C37      C      0.802110000000     0.756190000000     0.478510000000     0.400997   
C38      C      0.820770000000     0.878330000000     0.480010000000     0.400059   
C39      C      0.750140000000     0.827530000000     0.479580000000     0.40043    
C40      C      0.872480000000     0.808090000000     0.479280000000     0.401863   
C41      C      0.890740000000     0.241070000000     0.047480000000     0.400772   
C42      C      0.895630000000     0.117650000000     0.052460000000     0.401964   
C43      C      0.832350000000     0.176740000000     0.066460000000     0.402264   
C44      C      0.954030000000     0.181090000000     0.033690000000     0.400657   
C45      C      0.914680000000     0.205640000000     0.556770000000     0.402079   
C46      C      0.881310000000     0.090010000000     0.515450000000     0.400438   
C47      C      0.838650000000     0.164640000000     0.541770000000     0.400815   
C48      C      0.957620000000     0.131250000000     0.530290000000     0.402757   
C49      C      0.242470000000     0.220950000000     0.019620000000     0.401495   
C50      C      0.228670000000     0.099260000000     0.995890000000     0.401584   
C51      C      0.296910000000     0.153630000000     0.008520000000     0.402951   
C52      C      0.174010000000     0.167660000000     0.006340000000     0.400358   
C53      C      0.210740000000     0.284100000000     0.503080000000     0.401396   
C54      C      0.221570000000     0.161290000000     0.511910000000     0.402804   
C55      C      0.278090000000     0.226890000000     0.503750000000     0.401446   
C56      C      0.154740000000     0.217770000000     0.511620000000     0.401872   
C57      C      0.177390000000     0.783740000000     0.980310000000     0.401129   
C58      C      0.142240000000     0.902070000000     0.974760000000     0.402251   
C59      C      0.218550000000     0.859890000000     0.965690000000     0.402452   
C60      C      0.100690000000     0.825840000000     0.989040000000     0.402485   
C61      C      0.131850000000     0.845300000000     0.498360000000     0.402227   
C62      C      0.125780000000     0.968580000000     0.503430000000     0.403098   
C63      C      0.190770000000     0.909420000000     0.507340000000     0.400516   
C64      C      0.067180000000     0.904060000000     0.494660000000     0.401726   
C65      C      0.122710000000     0.017880000000     0.547620000000     0.0135048  
C66      C      0.226010000000     0.110640000000     0.472190000000     0.0149285  
C67      C      0.221820000000     0.112270000000     0.556990000000     0.0129661  
C68      C      0.195740000000     0.092640000000     0.466340000000    -0.0996464  
C69      C      0.152480000000     0.037030000000     0.553120000000    -0.0995549  
C70      C      0.191860000000     0.092940000000     0.556980000000    -0.0992186  
C71      C      0.163340000000     0.053100000000     0.508790000000     0.0168355  
C72      C      0.184420000000     0.077130000000     0.510810000000     0.0165956  
C73      C      0.125380000000     0.019190000000     0.462670000000     0.0141777  
C74      C      0.155580000000     0.037850000000     0.462430000000    -0.0997257  
C75      C      0.128690000000     0.950570000000     0.015820000000     0.0151096  
C76      C      0.223420000000     0.053280000000     0.944640000000     0.0128085  
C77      C      0.224190000000     0.046520000000     0.029490000000     0.0134885  
C78      C      0.192990000000     0.034970000000     0.939960000000    -0.0999752  
C79      C      0.156050000000     0.972540000000     0.022880000000    -0.0994796  
C80      C      0.193090000000     0.029430000000     0.029610000000    -0.100065   
C81      C      0.165710000000     0.990040000000     0.979200000000     0.0168365  
C82      C      0.184830000000     0.015610000000     0.982560000000     0.0168022  
C83      C      0.133030000000     0.950900000000     0.931170000000     0.0129184  
C84      C      0.159060000000     0.975350000000     0.931930000000    -0.0990843  
C85      C      0.103560000000     0.212910000000     0.472450000000     0.0129429  
C86      C      0.008200000000     0.119540000000     0.567760000000     0.0130423  
C87      C      0.004350000000     0.120020000000     0.483060000000     0.0143838  
C88      C      0.031810000000     0.146170000000     0.568620000000    -0.0990941  
C89      C      0.085990000000     0.182010000000     0.472270000000    -0.0997671  
C90      C      0.027450000000     0.146690000000     0.477660000000    -0.0992146  
C91      C      0.071260000000     0.173860000000     0.518880000000     0.0166814  
C92      C      0.045730000000     0.154610000000     0.521480000000     0.0168534  
C93      C      0.106270000000     0.213780000000     0.557750000000     0.0133511  
C94      C      0.089660000000     0.182570000000     0.562160000000    -0.0998643  
C95      C      0.126780000000     0.183890000000     0.963880000000     0.0107024  
C96      C      0.007690000000     0.178100000000     0.063870000000     0.011285   
C97      C      0.997100000000     0.177830000000     0.977380000000     0.0109357  
C98      C      0.036750000000     0.197470000000     0.054800000000    -0.101848   
C99      C      0.094310000000     0.169590000000     0.957730000000    -0.102303   
C100     C      0.027420000000     0.195910000000     0.969520000000    -0.10247    
C101     C      0.076480000000     0.171680000000     0.002690000000     0.0196225  
C102     C      0.049910000000     0.188790000000     0.008260000000     0.0194646  
C103     C      0.124600000000     0.171730000000     0.049530000000     0.0118437  
C104     C      0.093270000000     0.155930000000     0.042080000000    -0.101972   
C105     C      0.922760000000     0.804820000000     0.437290000000     0.0135922  
C106     C      0.015390000000     0.900870000000     0.532270000000     0.0131433  
C107     C      0.019050000000     0.901750000000     0.447190000000     0.0131392  
C108     C      0.997860000000     0.870030000000     0.532670000000    -0.0993673  
C109     C      0.943520000000     0.833710000000     0.437170000000    -0.0993436  
C110     C      0.000740000000     0.871420000000     0.442410000000    -0.100038   
C111     C      0.958620000000     0.841250000000     0.483790000000     0.0165699  
C112     C      0.983200000000     0.861730000000     0.486140000000     0.0168067  
C113     C      0.922050000000     0.801750000000     0.522160000000     0.0137906  
C114     C      0.941970000000     0.830870000000     0.527930000000    -0.0993317  
C115     C      0.869070000000     0.037020000000     0.542340000000     0.0119972  
C116     C      0.821160000000     0.928690000000     0.438510000000     0.0101999  
C117     C      0.831300000000     0.926130000000     0.524510000000     0.0119718  
C118     C      0.846070000000     0.954150000000     0.433740000000    -0.101729   
C119     C      0.840900000000     0.016690000000     0.532360000000    -0.101833   
C120     C      0.858020000000     0.948980000000     0.518520000000    -0.101725   
C121     C      0.845000000000     0.001920000000     0.485510000000     0.0190746  
C122     C      0.850320000000     0.970860000000     0.479350000000     0.0191842  
C123     C      0.873000000000     0.049030000000     0.456730000000     0.00995727 
C124     C      0.846620000000     0.025740000000     0.447120000000    -0.101743   
C125     C      0.055740000000     0.814480000000     0.040240000000     0.0133894  
C126     C      0.941280000000     0.897310000000     0.973140000000     0.0140703  
C127     C      0.943790000000     0.892680000000     0.057760000000     0.0138042  
C128     C      0.964980000000     0.871420000000     0.965330000000    -0.0997255  
C129     C      0.031350000000     0.840050000000     0.046960000000    -0.0994507  
C130     C      0.968790000000     0.867400000000     0.055880000000    -0.0994201  
C131     C      0.011380000000     0.846840000000     0.004240000000     0.0167004  
C132     C      0.983940000000     0.863110000000     0.008390000000     0.0170824  
C133     C      0.048850000000     0.814270000000     0.955810000000     0.0143888  
C134     C      0.025580000000     0.841010000000     0.956570000000    -0.0997894  
C135     C      0.896630000000     0.067820000000     0.095920000000     0.0123364  
C136     C      0.800910000000     0.971440000000     0.007870000000     0.0152977  
C137     C      0.807960000000     0.962720000000     0.091080000000     0.0128965  
C138     C      0.828320000000     0.993670000000     0.004070000000    -0.0993737  
C139     C      0.867520000000     0.047100000000     0.097980000000    -0.0996306  
C140     C      0.834100000000     0.986980000000     0.094310000000    -0.0988979  
C141     C      0.858490000000     0.032060000000     0.051890000000     0.0168742  
C142     C      0.839380000000     0.006430000000     0.050600000000     0.01664    
C143     C      0.896460000000     0.067610000000     0.010670000000     0.0146339  
C144     C      0.865850000000     0.049990000000     0.007690000000    -0.0998161  
C145     C      0.145740000000     0.797560000000     0.455940000000     0.012327   
C146     C      0.153140000000     0.673320000000     0.553340000000     0.0125482  
C147     C      0.203940000000     0.681650000000     0.511600000000     0.0124888  
C148     C      0.138010000000     0.699250000000     0.525450000000    -0.101548   
C149     C      0.170490000000     0.773920000000     0.470480000000    -0.101662   
C150     C      0.189150000000     0.707070000000     0.481800000000    -0.101964   
C151     C      0.157430000000     0.752990000000     0.507690000000     0.0180282  
C152     C      0.162240000000     0.721780000000     0.507490000000     0.0185245  
C153     C      0.120220000000     0.794350000000     0.533930000000     0.0125311  
C154     C      0.143500000000     0.769580000000     0.549000000000    -0.101301   
C155     C      0.188540000000     0.331690000000     0.536820000000     0.0124703  
C156     C      0.236490000000     0.461620000000     0.511040000000     0.0119279  
C157     C      0.185650000000     0.454630000000     0.553440000000     0.0124688  
C158     C      0.229160000000     0.433580000000     0.480170000000    -0.102005   
C159     C      0.204490000000     0.361870000000     0.550610000000    -0.101512   
C160     C      0.178080000000     0.426340000000     0.523940000000    -0.101472   
C161     C      0.213110000000     0.380620000000     0.508330000000     0.01859    
C162     C      0.207620000000     0.411660000000     0.505550000000     0.0184352  
C163     C      0.215180000000     0.333100000000     0.459240000000     0.0119865  
C164     C      0.231940000000     0.363320000000     0.472460000000    -0.101916   
C165     C      0.207360000000     0.741670000000     0.018110000000     0.012552   
C166     C      0.155380000000     0.609400000000     0.024490000000     0.0122593  
C167     C      0.208140000000     0.615940000000     0.060300000000     0.0123757  
C168     C      0.161920000000     0.635560000000     0.990060000000    -0.101347   
C169     C      0.193930000000     0.712250000000     0.039820000000    -0.101107   
C170     C      0.215170000000     0.643290000000     0.028370000000    -0.101077   
C171     C      0.183090000000     0.689270000000     0.003400000000     0.0177592  
C172     C      0.185500000000     0.658040000000     0.010040000000     0.0178024  
C173     C      0.178180000000     0.731580000000     0.944710000000     0.0123667  
C174     C      0.162790000000     0.702760000000     0.965550000000    -0.101308   
C175     C      0.261670000000     0.272020000000     0.992140000000     0.0122283  
C176     C      0.185790000000     0.388930000000     0.029290000000     0.0129087  
C177     C      0.237770000000     0.398520000000     0.991500000000     0.0120628  
C178     C      0.199150000000     0.361340000000     0.055950000000    -0.102081   
C179     C      0.242390000000     0.301110000000     0.982010000000    -0.100977   
C180     C      0.251220000000     0.369780000000     0.015080000000    -0.101391   
C181     C      0.229800000000     0.315940000000     0.025800000000     0.0176798  
C182     C      0.225830000000     0.347210000000     0.029060000000     0.0184815  
C183     C      0.236530000000     0.266810000000     0.069880000000     0.012847   
C184     C      0.214690000000     0.293960000000     0.059850000000    -0.101499   
C185     C      0.170850000000     0.575650000000     0.693770000000     0.0141907  
C186     C      0.231880000000     0.508730000000     0.866210000000     0.012708   
C187     C      0.174640000000     0.501650000000     0.862190000000     0.012989   
C188     C      0.231390000000     0.533910000000     0.828970000000    -0.100015   
C189     C      0.170310000000     0.550590000000     0.730720000000    -0.100102   
C190     C      0.171120000000     0.527180000000     0.826040000000    -0.0999935  
C191     C      0.200850000000     0.548040000000     0.757370000000     0.016745   
C192     C      0.201380000000     0.534830000000     0.800690000000     0.0167724  
C193     C      0.228420000000     0.576960000000     0.690370000000     0.0123041  
C194     C      0.231140000000     0.554120000000     0.730890000000    -0.099618   
C195     C      0.213740000000     0.574020000000     0.358730000000     0.013539   
C196     C      0.166520000000     0.489020000000     0.193680000000     0.0128244  
C197     C      0.223820000000     0.494330000000     0.196290000000     0.0134962  
C198     C      0.161950000000     0.513470000000     0.231510000000    -0.0996989  
C199     C      0.219300000000     0.547480000000     0.324940000000    -0.0998901  
C200     C      0.222540000000     0.520310000000     0.232020000000    -0.0998194  
C201     C      0.189780000000     0.537070000000     0.299940000000     0.0166042  
C202     C      0.191570000000     0.522200000000     0.257890000000     0.0167241  
C203     C      0.157210000000     0.563260000000     0.363910000000     0.0123008  
C204     C      0.159340000000     0.537490000000     0.327480000000    -0.0996854  
C205     C      0.326250000000     0.209890000000     0.465310000000     0.0124926  
C206     C      0.455480000000     0.262790000000     0.480490000000     0.0121392  
C207     C      0.448220000000     0.210210000000     0.444320000000     0.0127523  
C208     C      0.426200000000     0.258330000000     0.510080000000    -0.101862   
C209     C      0.352880000000     0.229020000000     0.445670000000    -0.101693   
C210     C      0.418380000000     0.205230000000     0.471860000000    -0.101294   
C211     C      0.373000000000     0.241230000000     0.484360000000     0.0186405  
C212     C      0.404190000000     0.235970000000     0.486430000000     0.0184599  
C213     C      0.328510000000     0.240700000000     0.539540000000     0.0115435  
C214     C      0.355730000000     0.260000000000     0.520340000000    -0.101997   
C215     C      0.673730000000     0.215460000000     0.492280000000     0.0120036  
C216     C      0.788960000000     0.164550000000     0.584730000000     0.0120783  
C217     C      0.795400000000     0.197400000000     0.513460000000     0.0120423  
C218     C      0.756700000000     0.153950000000     0.568560000000    -0.101931   
C219     C      0.700960000000     0.218860000000     0.525550000000    -0.101691   
C220     C      0.763050000000     0.187910000000     0.496910000000    -0.101248   
C221     C      0.712330000000     0.187260000000     0.540780000000     0.0186169  
C222     C      0.742600000000     0.178180000000     0.537040000000     0.01835    
C223     C      0.660050000000     0.163760000000     0.528440000000     0.0116098  
C224     C      0.687440000000     0.166970000000     0.562120000000    -0.102073   
C225     C      0.457070000000     0.190360000000     0.919820000000     0.0154806  
C226     C      0.347080000000     0.165090000000     0.046420000000     0.0107956  
C227     C      0.345740000000     0.141170000000     0.967780000000     0.0146435  
C228     C      0.365590000000     0.193120000000     0.028010000000    -0.100853   
C229     C      0.434930000000     0.171580000000     0.949840000000    -0.101434   
C230     C      0.363110000000     0.168660000000     0.947220000000    -0.101368   
C231     C      0.412810000000     0.192830000000     0.976040000000     0.0178679  
C232     C      0.382780000000     0.184310000000     0.984020000000     0.0177104  
C233     C      0.450610000000     0.237320000000     0.969250000000     0.0112983  
C234     C      0.427730000000     0.220080000000     0.001110000000    -0.100816   
C235     C      0.665780000000     0.224590000000     0.056120000000     0.0108823  
C236     C      0.781360000000     0.155170000000     0.044610000000     0.0134199  
C237     C      0.786920000000     0.187860000000     0.116190000000     0.0121271  
C238     C      0.752490000000     0.173200000000     0.030380000000    -0.101572   
C239     C      0.686710000000     0.213110000000     0.095790000000    -0.102005   
C240     C      0.757830000000     0.206690000000     0.103060000000    -0.102082   
C241     C      0.705610000000     0.185720000000     0.079070000000     0.0184553  
C242     C      0.736870000000     0.187510000000     0.072190000000     0.0193454  
C243     C      0.666480000000     0.170580000000     0.021040000000     0.012374   
C244     C      0.686140000000     0.159230000000     0.061220000000    -0.101793   
C245     C      0.533260000000     0.193390000000     0.655250000000     0.0134628  
C246     C      0.599530000000     0.242090000000     0.837910000000     0.0128202  
C247     C      0.597400000000     0.184920000000     0.832590000000     0.0143291  
C248     C      0.580170000000     0.246040000000     0.793760000000    -0.0995119  
C249     C      0.556420000000     0.188150000000     0.694370000000    -0.0998923  
C250     C      0.575380000000     0.185240000000     0.791430000000    -0.0997268  
C251     C      0.564180000000     0.217780000000     0.721070000000     0.0168749  
C252     C      0.574900000000     0.216260000000     0.765810000000     0.0167537  
C253     C      0.544000000000     0.249830000000     0.652300000000     0.0128565  
C254     C      0.566230000000     0.248040000000     0.693560000000    -0.099824   
C255     C      0.577950000000     0.176210000000     0.331100000000     0.0129115  
C256     C      0.519190000000     0.230360000000     0.147130000000     0.0148538  
C257     C      0.522040000000     0.173130000000     0.145570000000     0.0126212  
C258     C      0.540630000000     0.233290000000     0.188650000000    -0.0997758  
C259     C      0.555280000000     0.174560000000     0.290440000000    -0.0998141  
C260     C      0.541080000000     0.172230000000     0.190430000000    -0.099248   
C261     C      0.554270000000     0.204080000000     0.261130000000     0.0167893  
C262     C      0.543680000000     0.203230000000     0.216290000000     0.0166478  
C263     C      0.582080000000     0.233430000000     0.325730000000     0.0134911  
C264     C      0.558720000000     0.235060000000     0.286120000000    -0.100044   
C265     C      0.938180000000     0.256010000000     0.534520000000     0.0132965  
C266     C      0.856330000000     0.366990000000     0.562450000000     0.0114043  
C267     C      0.905960000000     0.375120000000     0.517410000000     0.0128197  
C268     C      0.873280000000     0.344620000000     0.595340000000    -0.101929   
C269     C      0.917830000000     0.284140000000     0.523750000000    -0.100783   
C270     C      0.923280000000     0.353460000000     0.549990000000    -0.101852   
C271     C      0.905140000000     0.298970000000     0.567560000000     0.0175743  
C272     C      0.900860000000     0.330230000000     0.570680000000     0.0185661  
C273     C      0.913050000000     0.249530000000     0.611700000000     0.0119047  
C274     C      0.891030000000     0.276890000000     0.602620000000    -0.100967   
C275     C      0.868470000000     0.593580000000     0.504390000000     0.0122343  
C276     C      0.784580000000     0.707770000000     0.517060000000     0.0123345  
C277     C      0.807480000000     0.706040000000     0.437700000000     0.0122147  
C278     C      0.806370000000     0.681860000000     0.533160000000    -0.100654   
C279     C      0.851770000000     0.616450000000     0.472240000000    -0.101764   
C280     C      0.831230000000     0.681450000000     0.452440000000    -0.101114   
C281     C      0.825140000000     0.632000000000     0.497580000000     0.018338   
C282     C      0.818850000000     0.662860000000     0.492930000000     0.0173657  
C283     C      0.819490000000     0.586400000000     0.550920000000     0.0122685  
C284     C      0.802480000000     0.609920000000     0.520670000000    -0.101325   
C285     C      0.877980000000     0.289490000000     0.005230000000     0.0114203  
C286     C      0.889080000000     0.417880000000     0.070860000000     0.0125859  
C287     C      0.832930000000     0.414030000000     0.043430000000     0.0126485  
C288     C      0.882860000000     0.385550000000     0.091090000000    -0.101905   
C289     C      0.853790000000     0.313870000000     0.019470000000    -0.101098   
C290     C      0.842800000000     0.382290000000     0.024580000000    -0.101876   
C291     C      0.866330000000     0.333900000000     0.058400000000     0.017399   
C292     C      0.864130000000     0.365550000000     0.058080000000     0.0171276  
C293     C      0.902700000000     0.291830000000     0.083670000000     0.0120991  
C294     C      0.878910000000     0.315920000000     0.099410000000    -0.101167   
C295     C      0.885390000000     0.758490000000     0.022080000000     0.0133527  
C296     C      0.828710000000     0.634340000000     0.999780000000     0.011121   
C297     C      0.879630000000     0.638350000000     0.043060000000     0.0126302  
C298     C      0.840420000000     0.658050000000     0.964050000000    -0.101802   
C299     C      0.871050000000     0.727120000000     0.033870000000    -0.101233   
C300     C      0.891750000000     0.661230000000     0.007340000000    -0.101623   
C301     C      0.861070000000     0.709920000000     0.990550000000     0.0185102  
C302     C      0.864750000000     0.678670000000     0.986270000000     0.0182933  
C303     C      0.857240000000     0.759740000000     0.946300000000     0.012121   
C304     C      0.841640000000     0.728450000000     0.956640000000    -0.101565   
C305     C      0.901010000000     0.521650000000     0.880890000000     0.00996458 
C306     C      0.846130000000     0.486500000000     0.701840000000     0.0122664  
C307     C      0.904830000000     0.488160000000     0.692070000000     0.00997686 
C308     C      0.848760000000     0.511020000000     0.739360000000    -0.102032   
C309     C      0.908620000000     0.499750000000     0.840450000000    -0.101865   
C310     C      0.907220000000     0.509980000000     0.734030000000    -0.101891   
C311     C      0.880350000000     0.496090000000     0.809680000000     0.0191888  
C312     C      0.879000000000     0.506140000000     0.764930000000     0.0192928  
C313     C      0.843590000000     0.508610000000     0.872070000000     0.0121435  
C314     C      0.852270000000     0.484540000000     0.835890000000    -0.101946   
C315     C      0.814430000000     0.537830000000     0.198160000000     0.012431   
C316     C      0.878290000000     0.467380000000     0.365840000000     0.0149772  
C317     C      0.820940000000     0.467090000000     0.373510000000     0.0121374  
C318     C      0.878340000000     0.494220000000     0.331930000000    -0.100008   
C319     C      0.815170000000     0.514240000000     0.238030000000    -0.0995167  
C320     C      0.817390000000     0.491310000000     0.334810000000    -0.0995389  
C321     C      0.845760000000     0.512920000000     0.265260000000     0.0167948  
C322     C      0.847140000000     0.498140000000     0.307330000000     0.0166694  
C323     C      0.870840000000     0.547940000000     0.205350000000     0.0151187  
C324     C      0.875760000000     0.522390000000     0.240670000000    -0.0999748  
C325     C      0.361840000000     0.886800000000     0.585020000000     0.0123291  
C326     C      0.242120000000     0.900610000000     0.471230000000     0.0122696  
C327     C      0.238540000000     0.922270000000     0.551410000000     0.0121735  
C328     C      0.265450000000     0.875920000000     0.487010000000    -0.10108    
C329     C      0.336240000000     0.903160000000     0.557520000000    -0.100974   
C330     C      0.263620000000     0.899690000000     0.568160000000    -0.100821   
C331     C      0.314040000000     0.880250000000     0.534960000000     0.0177763  
C332     C      0.283400000000     0.887380000000     0.528700000000     0.0175417  
C333     C      0.353440000000     0.837690000000     0.540170000000     0.0123575  
C334     C      0.329350000000     0.853660000000     0.509290000000    -0.101286   
C335     C      0.699150000000     0.826970000000     0.439960000000     0.0120058  
C336     C      0.582730000000     0.859740000000     0.549670000000     0.0118714  
C337     C      0.572920000000     0.809550000000     0.507080000000     0.0116134  
C338     C      0.608950000000     0.867630000000     0.516140000000    -0.101391   
C339     C      0.668170000000     0.812790000000     0.456010000000    -0.10169    
C340     C      0.598720000000     0.817390000000     0.472330000000    -0.102003   
C341     C      0.653610000000     0.832720000000     0.493310000000     0.018324   
C342     C      0.622420000000     0.838420000000     0.494970000000     0.0183994  
C343     C      0.705660000000     0.853820000000     0.516520000000     0.0123435  
C344     C      0.674850000000     0.840480000000     0.533430000000    -0.101293   
C345     C      0.264670000000     0.889140000000     0.992340000000     0.0137755  
C346     C      0.384790000000     0.821360000000     0.005430000000     0.0112636  
C347     C      0.382390000000     0.875940000000     0.036830000000     0.0133813  
C348     C      0.364240000000     0.830850000000     0.964250000000    -0.101821   
C349     C      0.293070000000     0.873050000000     0.012840000000    -0.101132   
C350     C      0.362630000000     0.886070000000     0.995990000000    -0.101824   
C351     C      0.312910000000     0.858300000000     0.975370000000     0.0182631  
C352     C      0.344520000000     0.858610000000     0.977670000000     0.0183777  
C353     C      0.267510000000     0.855970000000     0.921380000000     0.0120027  
C354     C      0.295700000000     0.838300000000     0.940680000000    -0.101436   
C355     C      0.603330000000     0.826770000000     0.088170000000     0.0120967  
C356     C      0.725940000000     0.839130000000     0.978300000000     0.0131184  
C357     C      0.733210000000     0.813630000000     0.054850000000     0.0120393  
C358     C      0.697960000000     0.857510000000     0.995670000000    -0.100962   
C359     C      0.631860000000     0.815660000000     0.061090000000    -0.100951   
C360     C      0.703310000000     0.828670000000     0.073230000000    -0.100709   
C361     C      0.650610000000     0.842470000000     0.041070000000     0.0177544  
C362     C      0.682040000000     0.840320000000     0.034830000000     0.0173255  
C363     C      0.605180000000     0.878320000000     0.048390000000     0.0128498  
C364     C      0.631710000000     0.867540000000     0.017240000000    -0.101225   
C365     C      0.483730000000     0.863200000000     0.710760000000     0.0125521  
C366     C      0.500260000000     0.804370000000     0.887370000000     0.0102134  
C367     C      0.505150000000     0.863510000000     0.875680000000     0.0120438  
C368     C      0.514380000000     0.799740000000     0.839190000000    -0.102589   
C369     C      0.470330000000     0.857870000000     0.758590000000    -0.102763   
C370     C      0.521160000000     0.856660000000     0.829930000000    -0.102603   
C371     C      0.483890000000     0.828220000000     0.777370000000     0.0208331  
C372     C      0.506960000000     0.827690000000     0.809910000000     0.0207017  
C373     C      0.484100000000     0.804300000000     0.698950000000     0.0098418  
C374     C      0.473840000000     0.800300000000     0.749480000000    -0.102269   
C375     C      0.456720000000     0.836800000000     0.376460000000     0.0119343  
C376     C      0.474070000000     0.893880000000     0.197380000000     0.0107934  
C377     C      0.471950000000     0.835320000000     0.208620000000     0.0118716  
C378     C      0.487170000000     0.897450000000     0.246380000000    -0.102673   
C379     C      0.439590000000     0.845530000000     0.332380000000    -0.102369   
C380     C      0.486790000000     0.839530000000     0.255890000000    -0.102134   
C381     C      0.455790000000     0.873000000000     0.311080000000     0.0202149  
C382     C      0.476560000000     0.870350000000     0.275570000000     0.0203611  
C383     C      0.469180000000     0.894620000000     0.387750000000     0.010296   
C384     C      0.453300000000     0.901380000000     0.341380000000    -0.102456   
Cu1      Cu     0.494120000000     0.877660000000     0.037150000000     0.846137   
Cu2      Cu     0.493750000000     0.820960000000     0.048740000000     0.836682   
Cu3      Cu     0.471800000000     0.877810000000     0.550420000000     0.840162   
Cu4      Cu     0.464010000000     0.821700000000     0.537890000000     0.84089    
Cu5      Cu     0.829090000000     0.524580000000     0.033250000000     0.837511   
Cu6      Cu     0.885910000000     0.527310000000     0.045060000000     0.84307    
Cu7      Cu     0.833990000000     0.475800000000     0.539540000000     0.83717    
Cu8      Cu     0.890070000000     0.485050000000     0.527310000000     0.842434   
Cu9      Cu     0.561840000000     0.235780000000     0.995140000000     0.837069   
Cu10     Cu     0.558450000000     0.178830000000     0.987200000000     0.844798   
Cu11     Cu     0.565100000000     0.241300000000     0.489510000000     0.83976    
Cu12     Cu     0.553170000000     0.185380000000     0.492490000000     0.838537   
Cu13     Cu     0.169870000000     0.499040000000     0.027970000000     0.841359   
Cu14     Cu     0.226660000000     0.506790000000     0.031460000000     0.836438   
Cu15     Cu     0.165190000000     0.563520000000     0.530410000000     0.840416   
Cu16     Cu     0.221820000000     0.571870000000     0.523580000000     0.838963   
Cu17     Cu     0.837690000000     0.856710000000     0.059190000000     0.833744   
Cu18     Cu     0.833420000000     0.867340000000     0.975850000000     0.846527   
Cu19     Cu     0.811180000000     0.817170000000     0.521790000000     0.839524   
Cu20     Cu     0.811260000000     0.817410000000     0.436820000000     0.836776   
Cu21     Cu     0.888070000000     0.178220000000     0.008330000000     0.844296   
Cu22     Cu     0.898180000000     0.180460000000     0.091940000000     0.835659   
Cu23     Cu     0.898400000000     0.154500000000     0.494660000000     0.836793   
Cu24     Cu     0.897830000000     0.141210000000     0.577340000000     0.842343   
Cu25     Cu     0.234600000000     0.156760000000     0.049660000000     0.843798   
Cu26     Cu     0.236370000000     0.163620000000     0.965310000000     0.83692    
Cu27     Cu     0.217320000000     0.224310000000     0.550070000000     0.83831    
Cu28     Cu     0.215510000000     0.221140000000     0.465170000000     0.842243   
Cu29     Cu     0.156400000000     0.840830000000     0.935360000000     0.84004    
Cu30     Cu     0.162960000000     0.844890000000     0.019570000000     0.838538   
Cu31     Cu     0.131020000000     0.907620000000     0.458580000000     0.842914   
Cu32     Cu     0.126910000000     0.906210000000     0.543470000000     0.836818   
H1       H      0.147510000000     0.054190000000     0.580680000000     0.0420004  
H2       H      0.245360000000     0.093670000000     0.475900000000     0.0252115  
H3       H      0.105520000000     0.035750000000     0.462510000000     0.025501   
H4       H      0.152720000000     0.055480000000     0.434840000000     0.0422389  
H5       H      0.200400000000     0.075270000000     0.438940000000     0.042481   
H6       H      0.194700000000     0.075570000000     0.584920000000     0.0420801  
H7       H      0.119600000000     0.002830000000     0.578370000000     0.0351777  
H8       H      0.230670000000     0.124520000000     0.440640000000     0.0342455  
H9       H      0.175070000000     0.022200000000     0.452800000000     0.0520641  
H10      H      0.172040000000     0.108330000000     0.566050000000     0.0500677  
H11      H      0.123850000000     0.005170000000     0.430590000000     0.0349027  
H12      H      0.241970000000     0.096170000000     0.559690000000     0.0260174  
H13      H      0.171430000000     0.021490000000     0.565210000000     0.0511244  
H14      H      0.177360000000     0.108740000000     0.453970000000     0.0525198  
H15      H      0.222130000000     0.127520000000     0.587880000000     0.0349717  
H16      H      0.102610000000     0.034120000000     0.546380000000     0.0257863  
H17      H      0.148780000000     0.988970000000     0.050350000000     0.042382   
H18      H      0.243130000000     0.036760000000     0.940740000000     0.0263299  
H19      H      0.110320000000     0.963180000000     0.928850000000     0.025378   
H20      H      0.152170000000     0.993440000000     0.906650000000     0.0422075  
H21      H      0.195860000000     0.020400000000     0.908760000000     0.0423434  
H22      H      0.195280000000     0.011390000000     0.056670000000     0.0424282  
H23      H      0.125800000000     0.935660000000     0.046790000000     0.0341107  
H24      H      0.225060000000     0.070300000000     0.915980000000     0.0353842  
H25      H      0.180860000000     0.964240000000     0.919570000000     0.0506903  
H26      H      0.174360000000     0.045780000000     0.039970000000     0.0515798  
H27      H      0.135400000000     0.936310000000     0.899780000000     0.034955   
H28      H      0.243130000000     0.029080000000     0.026000000000     0.0264346  
H29      H      0.176310000000     0.958930000000     0.035460000000     0.0528545  
H30      H      0.173640000000     0.051510000000     0.933560000000     0.0509326  
H31      H      0.227360000000     0.058360000000     0.063190000000     0.0355354  
H32      H      0.107140000000     0.964680000000     0.012190000000     0.0248496  
H33      H      0.068420000000     0.184200000000     0.444490000000     0.042212   
H34      H      0.021180000000     0.097260000000     0.565510000000     0.0260148  
H35      H      0.088420000000     0.232470000000     0.558520000000     0.0261436  
H36      H      0.074570000000     0.184690000000     0.593000000000     0.0423759  
H37      H      0.050440000000     0.138980000000     0.592920000000     0.0420861  
H38      H      0.043460000000     0.139690000000     0.449470000000     0.0421549  
H39      H      0.117110000000     0.215080000000     0.440000000000     0.035152   
H40      H      0.994870000000     0.119380000000     0.600570000000     0.0352928  
H41      H      0.107150000000     0.164130000000     0.568870000000     0.0510788  
H42      H      0.014490000000     0.167720000000     0.466580000000     0.0522699  
H43      H      0.121670000000     0.217190000000     0.588080000000     0.0352268  
H44      H      0.017570000000     0.097830000000     0.482370000000     0.0254478  
H45      H      0.102370000000     0.163130000000     0.462680000000     0.05065    
H46      H      0.020130000000     0.167110000000     0.582780000000     0.0511722  
H47      H      0.988110000000     0.119730000000     0.453240000000     0.0347536  
H48      H      0.086170000000     0.232030000000     0.472930000000     0.0262308  
H49      H      0.083290000000     0.181710000000     0.928450000000     0.0427039  
H50      H      0.014560000000     0.153350000000     0.067670000000     0.028705   
H51      H      0.120530000000     0.195900000000     0.061540000000     0.0277857  
H52      H      0.079990000000     0.154730000000     0.074690000000     0.0432232  
H53      H      0.053470000000     0.195680000000     0.083690000000     0.0429651  
H54      H      0.035880000000     0.189970000000     0.934700000000     0.0427535  
H55      H      0.140510000000     0.179050000000     0.932230000000     0.0360963  
H56      H      0.997490000000     0.185720000000     0.097200000000     0.036103   
H57      H      0.097560000000     0.131340000000     0.032390000000     0.0513922  
H58      H      0.022280000000     0.221180000000     0.969440000000     0.0500139  
H59      H      0.137060000000     0.159210000000     0.077460000000     0.0357997  
H60      H      0.001570000000     0.152860000000     0.970370000000     0.029038   
H61      H      0.096740000000     0.144800000000     0.947860000000     0.049882   
H62      H      0.029900000000     0.222340000000     0.053990000000     0.0510143  
H63      H      0.979790000000     0.185900000000     0.951570000000     0.0364588  
H64      H      0.124210000000     0.209510000000     0.966510000000     0.0285915  
H65      H      0.961470000000     0.829450000000     0.410390000000     0.042274   
H66      H      0.998020000000     0.919980000000     0.530770000000     0.0265209  
H67      H      0.937820000000     0.781320000000     0.520070000000     0.0253722  
H68      H      0.958960000000     0.825380000000     0.555590000000     0.0422515  
H69      H      0.980030000000     0.872340000000     0.560110000000     0.0422741  
H70      H      0.984620000000     0.875120000000     0.413040000000     0.0424154  
H71      H      0.908340000000     0.804500000000     0.405500000000     0.0347934  
H72      H      0.028460000000     0.903430000000     0.565090000000     0.0355184  
H73      H      0.926840000000     0.850170000000     0.539920000000     0.0515266  
H74      H      0.017120000000     0.852500000000     0.433060000000     0.051276   
H75      H      0.907150000000     0.798650000000     0.553120000000     0.0348385  
H76      H      0.002250000000     0.921380000000     0.445930000000     0.026204   
H77      H      0.929290000000     0.853990000000     0.426440000000     0.051394   
H78      H      0.014190000000     0.851190000000     0.542600000000     0.0513033  
H79      H      0.034960000000     0.904290000000     0.417250000000     0.0353335  
H80      H      0.938020000000     0.783980000000     0.436340000000     0.0252359  
H81      H      0.836520000000     0.000260000000     0.560920000000     0.0429149  
H82      H      0.797990000000     0.940100000000     0.440480000000     0.0283265  
H83      H      0.895550000000     0.037290000000     0.449780000000     0.0289086  
H84      H      0.850990000000     0.015870000000     0.412580000000     0.042597   
H85      H      0.838590000000     0.969300000000     0.405090000000     0.0426281  
H86      H      0.863840000000     0.960320000000     0.551610000000     0.043125   
H87      H      0.865660000000     0.048020000000     0.576610000000     0.0358589  
H88      H      0.821330000000     0.914400000000     0.406630000000     0.0363218  
H89      H      0.824120000000     0.038390000000     0.445440000000     0.0496396  
H90      H      0.879300000000     0.935730000000     0.509100000000     0.0517539  
H91      H      0.870960000000     0.068440000000     0.431720000000     0.0364938  
H92      H      0.810010000000     0.939080000000     0.534720000000     0.0278954  
H93      H      0.819880000000     0.031720000000     0.531410000000     0.0513819  
H94      H      0.868540000000     0.943370000000     0.423590000000     0.0496824  
H95      H      0.837310000000     0.910080000000     0.553130000000     0.0356736  
H96      H      0.890180000000     0.022170000000     0.544430000000     0.028933   
H97      H      0.016760000000     0.832440000000     0.076430000000     0.0420701  
H98      H      0.954040000000     0.919700000000     0.975920000000     0.0255445  
H99      H      0.035750000000     0.792110000000     0.959190000000     0.0252859  
H100     H      0.007430000000     0.834960000000     0.930880000000     0.042664   
H101     H      0.980320000000     0.879550000000     0.937010000000     0.042843   
H102     H      0.986350000000     0.873900000000     0.082230000000     0.0422584  
H103     H      0.072920000000     0.815420000000     0.068830000000     0.0348768  
H104     H      0.925580000000     0.898940000000     0.942810000000     0.0347172  
H105     H      0.037490000000     0.862540000000     0.945020000000     0.0528396  
H106     H      0.958100000000     0.844970000000     0.066200000000     0.0513311  
H107     H      0.060990000000     0.813820000000     0.922000000000     0.0348694  
H108     H      0.955620000000     0.915620000000     0.059330000000     0.025237   
H109     H      0.043480000000     0.861810000000     0.056940000000     0.051201   
H110     H      0.952480000000     0.850300000000     0.953500000000     0.0522873  
H111     H      0.929960000000     0.890140000000     0.089910000000     0.0345303  
H112     H      0.043760000000     0.791640000000     0.042340000000     0.0253252  
H113     H      0.872380000000     0.029380000000     0.124760000000     0.0423357  
H114     H      0.779710000000     0.985100000000     0.016430000000     0.0246017  
H115     H      0.915810000000     0.050460000000     0.011490000000     0.0260477  
H116     H      0.868210000000     0.034390000000     0.977450000000     0.0427458  
H117     H      0.820560000000     0.012770000000     0.981050000000     0.0422695  
H118     H      0.828190000000     0.002180000000     0.123950000000     0.0420352  
H119     H      0.897490000000     0.082670000000     0.127200000000     0.0353014  
H120     H      0.796790000000     0.960020000000     0.974060000000     0.0339462  
H121     H      0.846640000000     0.066620000000     0.000820000000     0.0524237  
H122     H      0.856180000000     0.974700000000     0.102400000000     0.0507672  
H123     H      0.899520000000     0.081960000000     0.979160000000     0.0350287  
H124     H      0.785420000000     0.974580000000     0.097830000000     0.0254129  
H125     H      0.847550000000     0.061370000000     0.109860000000     0.0503462  
H126     H      0.848030000000     0.981340000000     0.987340000000     0.0537224  
H127     H      0.811180000000     0.944960000000     0.118430000000     0.0350098  
H128     H      0.917500000000     0.052560000000     0.096490000000     0.0264366  
H129     H      0.177190000000     0.760760000000     0.439090000000     0.0426626  
H130     H      0.161490000000     0.683310000000     0.586440000000     0.0265257  
H131     H      0.099100000000     0.782420000000     0.520680000000     0.0260738  
H132     H      0.132310000000     0.753990000000     0.574370000000     0.0430292  
H133     H      0.119440000000     0.710180000000     0.546270000000     0.0430747  
H134     H      0.207730000000     0.724150000000     0.473770000000     0.0427692  
H135     H      0.156350000000     0.813790000000     0.430650000000     0.0348698  
H136     H      0.135260000000     0.655600000000     0.561900000000     0.034935   
H137     H      0.162800000000     0.781200000000     0.567750000000     0.0524275  
H138     H      0.180580000000     0.696950000000     0.448930000000     0.0503585  
H139     H      0.113070000000     0.808240000000     0.564420000000     0.0346436  
H140     H      0.215610000000     0.692700000000     0.541630000000     0.0289957  
H141     H      0.191380000000     0.786170000000     0.483850000000     0.0498131  
H142     H      0.126150000000     0.688730000000     0.495210000000     0.0524232  
H143     H      0.222030000000     0.669640000000     0.490810000000     0.0345637  
H144     H      0.126450000000     0.785060000000     0.438350000000     0.0282855  
H145     H      0.189810000000     0.374480000000     0.575740000000     0.043343   
H146     H      0.251120000000     0.453710000000     0.540410000000     0.0289452  
H147     H      0.193740000000     0.339010000000     0.439660000000     0.0292219  
H148     H      0.234910000000     0.377050000000     0.440350000000     0.0428786  
H149     H      0.251670000000     0.422510000000     0.471120000000     0.0428132  
H150     H      0.162970000000     0.410220000000     0.543480000000     0.0432267  
H151     H      0.184970000000     0.317230000000     0.568100000000     0.0353079  
H152     H      0.250270000000     0.478590000000     0.490650000000     0.0346973  
H153     H      0.255340000000     0.357940000000     0.486650000000     0.0499304  
H154     H      0.164010000000     0.434110000000     0.493940000000     0.0524722  
H155     H      0.230630000000     0.319460000000     0.436120000000     0.0343539  
H156     H      0.196720000000     0.446430000000     0.585880000000     0.0265255  
H157     H      0.226330000000     0.356060000000     0.569220000000     0.0525006  
H158     H      0.217760000000     0.441520000000     0.447870000000     0.0502007  
H159     H      0.163650000000     0.466510000000     0.563090000000     0.0350403  
H160     H      0.165130000000     0.337440000000     0.522900000000     0.026713   
H161     H      0.211160000000     0.702770000000     0.064340000000     0.0428335  
H162     H      0.143310000000     0.619350000000     0.055020000000     0.0281109  
H163     H      0.199600000000     0.724320000000     0.926070000000     0.0278583  
H164     H      0.159290000000     0.685990000000     0.936920000000     0.0429107  
H165     H      0.139300000000     0.647030000000     0.982790000000     0.0428974  
H166     H      0.230840000000     0.659560000000     0.046500000000     0.0427513  
H167     H      0.211720000000     0.759130000000     0.045550000000     0.0347332  
H168     H      0.139390000000     0.592450000000     0.008000000000     0.0355171  
H169     H      0.139690000000     0.708990000000     0.980060000000     0.0508908  
H170     H      0.228560000000     0.634470000000     0.998330000000     0.0523767  
H171     H      0.161950000000     0.741940000000     0.919160000000     0.0355107  
H172     H      0.198570000000     0.625340000000     0.093070000000     0.026356   
H173     H      0.173340000000     0.718860000000     0.060810000000     0.0525945  
H174     H      0.171090000000     0.625700000000     0.957370000000     0.0506774  
H175     H      0.230180000000     0.603740000000     0.068800000000     0.0349537  
H176     H      0.230240000000     0.735710000000     0.002550000000     0.0257871  
H177     H      0.256460000000     0.316990000000     0.960510000000     0.0428798  
H178     H      0.174570000000     0.380270000000     0.997210000000     0.0290831  
H179     H      0.257520000000     0.275750000000     0.087980000000     0.0276486  
H180     H      0.209820000000     0.305540000000     0.093310000000     0.0429803  
H181     H      0.179810000000     0.344610000000     0.061180000000     0.0431433  
H182     H      0.269300000000     0.359530000000     0.992610000000     0.0428573  
H183     H      0.266520000000     0.259620000000     0.959330000000     0.0343892  
H184     H      0.167510000000     0.400020000000     0.050850000000     0.0346916  
H185     H      0.192420000000     0.285200000000     0.045330000000     0.0509794  
H186     H      0.263400000000     0.377300000000     0.046970000000     0.0517825  
H187     H      0.224440000000     0.250480000000     0.093510000000     0.0355365  
H188     H      0.230030000000     0.391730000000     0.956340000000     0.0267228  
H189     H      0.222130000000     0.294210000000     0.960530000000     0.0521188  
H190     H      0.207620000000     0.369110000000     0.090260000000     0.0506126  
H191     H      0.256490000000     0.416080000000     0.987320000000     0.0350644  
H192     H      0.284420000000     0.279570000000     0.006550000000     0.0253758  
H193     H      0.150680000000     0.556930000000     0.753700000000     0.0421566  
H194     H      0.235940000000     0.485990000000     0.849110000000     0.0263099  
H195     H      0.229100000000     0.600970000000     0.704400000000     0.0267348  
H196     H      0.249190000000     0.564100000000     0.753840000000     0.0422631  
H197     H      0.251990000000     0.529150000000     0.807090000000     0.0422539  
H198     H      0.152920000000     0.518600000000     0.802130000000     0.0422708  
H199     H      0.149050000000     0.574220000000     0.673280000000     0.0351401  
H200     H      0.251960000000     0.513010000000     0.889490000000     0.0355218  
H201     H      0.239810000000     0.531550000000     0.717550000000     0.049814   
H202     H      0.162460000000     0.548620000000     0.843020000000     0.0502493  
H203     H      0.249000000000     0.574120000000     0.667580000000     0.035447   
H204     H      0.177600000000     0.479100000000     0.844030000000     0.0268279  
H205     H      0.165180000000     0.527830000000     0.714420000000     0.0518498  
H206     H      0.234590000000     0.556920000000     0.845590000000     0.0505153  
H207     H      0.152790000000     0.500250000000     0.882540000000     0.0354593  
H208     H      0.170960000000     0.598680000000     0.711120000000     0.0256709  
H209     H      0.237110000000     0.556270000000     0.300530000000     0.0422656  
H210     H      0.167950000000     0.465840000000     0.210430000000     0.0258612  
H211     H      0.151550000000     0.585380000000     0.346030000000     0.0265092  
H212     H      0.138940000000     0.541010000000     0.304680000000     0.0422551  
H213     H      0.144110000000     0.503660000000     0.254980000000     0.0421663  
H214     H      0.242140000000     0.515640000000     0.255930000000     0.0422066  
H215     H      0.235430000000     0.578230000000     0.378590000000     0.0353895  
H216     H      0.145710000000     0.488820000000     0.170980000000     0.0354074  
H217     H      0.156770000000     0.514670000000     0.344890000000     0.050049   
H218     H      0.226770000000     0.542860000000     0.214540000000     0.0512801  
H219     H      0.137630000000     0.558000000000     0.387660000000     0.035434   
H220     H      0.225410000000     0.471790000000     0.214840000000     0.025948   
H221     H      0.229150000000     0.527320000000     0.343840000000     0.0511931  
H222     H      0.152350000000     0.534880000000     0.215590000000     0.0507584  
H223     H      0.245350000000     0.496920000000     0.175460000000     0.0353309  
H224     H      0.208780000000     0.595430000000     0.338580000000     0.0260855  
H225     H      0.365740000000     0.215520000000     0.419350000000     0.0431892  
H226     H      0.448930000000     0.275400000000     0.448460000000     0.0283001  
H227     H      0.338120000000     0.221540000000     0.560900000000     0.0297429  
H228     H      0.370730000000     0.266620000000     0.549890000000     0.0430568  
H229     H      0.415490000000     0.281570000000     0.514850000000     0.0429168  
H230     H      0.402470000000     0.190110000000     0.451990000000     0.043411   
H231     H      0.310610000000     0.202780000000     0.436680000000     0.0355372  
H232     H      0.472190000000     0.277500000000     0.499930000000     0.0351242  
H233     H      0.346650000000     0.281580000000     0.504260000000     0.0496905  
H234     H      0.424280000000     0.192110000000     0.503670000000     0.0531079  
H235     H      0.314220000000     0.255760000000     0.562350000000     0.0343301  
H236     H      0.441770000000     0.219900000000     0.410090000000     0.0261057  
H237     H      0.342870000000     0.249230000000     0.427040000000     0.0523624  
H238     H      0.432710000000     0.248980000000     0.544450000000     0.0508744  
H239     H      0.459650000000     0.187460000000     0.438160000000     0.0347782  
H240     H      0.336100000000     0.188320000000     0.480480000000     0.0268791  
H241     H      0.719190000000     0.233800000000     0.510260000000     0.0430863  
H242     H      0.786110000000     0.184730000000     0.608260000000     0.0282074  
H243     H      0.667580000000     0.149330000000     0.498670000000     0.0293165  
H244     H      0.695750000000     0.143160000000     0.569830000000     0.042673   
H245     H      0.742520000000     0.150250000000     0.600080000000     0.0426624  
H246     H      0.753190000000     0.206690000000     0.475400000000     0.0432193  
H247     H      0.664360000000     0.238890000000     0.484390000000     0.0358307  
H248     H      0.799670000000     0.145370000000     0.604840000000     0.0352642  
H249     H      0.679280000000     0.177680000000     0.594810000000     0.0497315  
H250     H      0.765550000000     0.167590000000     0.473610000000     0.0522728  
H251     H      0.640920000000     0.151210000000     0.546280000000     0.0348327  
H252     H      0.793310000000     0.219830000000     0.532150000000     0.0261041  
H253     H      0.692670000000     0.231490000000     0.556610000000     0.0518932  
H254     H      0.758640000000     0.131570000000     0.549780000000     0.050269   
H255     H      0.810520000000     0.201470000000     0.482990000000     0.0352854  
H256     H      0.682640000000     0.205580000000     0.459410000000     0.027086   
H257     H      0.423500000000     0.153840000000     0.928190000000     0.0432956  
H258     H      0.363850000000     0.147450000000     0.059300000000     0.0282469  
H259     H      0.437070000000     0.249340000000     0.941890000000     0.0276609  
H260     H      0.409950000000     0.237130000000     0.012560000000     0.0429324  
H261     H      0.381780000000     0.200570000000     0.055720000000     0.0431316  
H262     H      0.375980000000     0.161140000000     0.916180000000     0.0432201  
H263     H      0.474550000000     0.174720000000     0.903710000000     0.0323084  
H264     H      0.332430000000     0.172720000000     0.075880000000     0.0351367  
H265     H      0.440330000000     0.211350000000     0.031960000000     0.0510914  
H266     H      0.345750000000     0.185830000000     0.934750000000     0.0555454  
H267     H      0.463310000000     0.255130000000     0.989580000000     0.0343975  
H268     H      0.363060000000     0.123280000000     0.978030000000     0.0258751  
H269     H      0.448860000000     0.158530000000     0.975650000000     0.0565755  
H270     H      0.349410000000     0.212580000000     0.020520000000     0.0505402  
H271     H      0.330240000000     0.130690000000     0.941330000000     0.0337432  
H272     H      0.443380000000     0.201300000000     0.891630000000     0.0252616  
H273     H      0.701260000000     0.232820000000     0.107600000000     0.0426907  
H274     H      0.773780000000     0.134250000000     0.064030000000     0.0256676  
H275     H      0.682130000000     0.176470000000     0.991800000000     0.0265443  
H276     H      0.700030000000     0.138540000000     0.051510000000     0.0430189  
H277     H      0.737220000000     0.157930000000     0.009660000000     0.043524   
H278     H      0.745980000000     0.213350000000     0.135630000000     0.0428307  
H279     H      0.649610000000     0.242450000000     0.069950000000     0.0346455  
H280     H      0.793740000000     0.146980000000     0.013240000000     0.0340871  
H281     H      0.670330000000     0.151420000000     0.089240000000     0.0519376  
H282     H      0.764820000000     0.228170000000     0.084580000000     0.0500345  
H283     H      0.651320000000     0.151240000000     0.009360000000     0.0358249  
H284     H      0.779870000000     0.168850000000     0.139920000000     0.0286516  
H285     H      0.671930000000     0.205700000000     0.125230000000     0.0496049  
H286     H      0.759680000000     0.192360000000     0.007050000000     0.053324   
H287     H      0.803320000000     0.203290000000     0.134980000000     0.0340123  
H288     H      0.680680000000     0.235940000000     0.029710000000     0.0296083  
H289     H      0.545580000000     0.170370000000     0.716900000000     0.0423729  
H290     H      0.624560000000     0.241930000000     0.828130000000     0.0259104  
H291     H      0.520300000000     0.255100000000     0.665570000000     0.0259336  
H292     H      0.560570000000     0.268480000000     0.715200000000     0.0423611  
H293     H      0.592640000000     0.263690000000     0.772930000000     0.0422915  
H294     H      0.583330000000     0.166150000000     0.768580000000     0.0421993  
H295     H      0.531260000000     0.171730000000     0.634710000000     0.0353474  
H296     H      0.595780000000     0.262470000000     0.860690000000     0.0354164  
H297     H      0.590490000000     0.250640000000     0.680900000000     0.0508345  
H298     H      0.551430000000     0.179920000000     0.803530000000     0.0520212  
H299     H      0.551010000000     0.269490000000     0.629820000000     0.0353122  
H300     H      0.621730000000     0.185110000000     0.819430000000     0.0254654  
H301     H      0.578310000000     0.178450000000     0.679950000000     0.0510532  
H302     H      0.557040000000     0.255590000000     0.803320000000     0.050696   
H303     H      0.594160000000     0.162990000000     0.852140000000     0.0348864  
H304     H      0.510020000000     0.198200000000     0.670590000000     0.026385   
H305     H      0.562690000000     0.154120000000     0.269980000000     0.0421543  
H306     H      0.494830000000     0.228360000000     0.159810000000     0.0246436  
H307     H      0.605830000000     0.231170000000     0.310840000000     0.0261124  
H308     H      0.567730000000     0.253280000000     0.262640000000     0.0424514  
H309     H      0.530630000000     0.252190000000     0.210020000000     0.0424187  
H310     H      0.529800000000     0.154390000000     0.212390000000     0.0420811  
H311     H      0.573560000000     0.156280000000     0.354500000000     0.0355189  
H312     H      0.520600000000     0.251860000000     0.126090000000     0.0344198  
H313     H      0.535830000000     0.242760000000     0.299790000000     0.051291   
H314     H      0.565010000000     0.164220000000     0.182110000000     0.0497675  
H315     H      0.581290000000     0.255580000000     0.345290000000     0.0353234  
H316     H      0.496950000000     0.171410000000     0.154660000000     0.0254393  
H317     H      0.531490000000     0.170050000000     0.303870000000     0.0508066  
H318     H      0.564120000000     0.240470000000     0.176700000000     0.0525241  
H319     H      0.527940000000     0.152530000000     0.124260000000     0.0347586  
H320     H      0.601980000000     0.173560000000     0.317410000000     0.0260895  
H321     H      0.931160000000     0.300120000000     0.501420000000     0.0431384  
H322     H      0.844700000000     0.353150000000     0.535060000000     0.0290546  
H323     H      0.934120000000     0.258370000000     0.629680000000     0.0275445  
H324     H      0.887010000000     0.288640000000     0.636200000000     0.0429168  
H325     H      0.856070000000     0.327120000000     0.607070000000     0.042988   
H326     H      0.943540000000     0.342950000000     0.532390000000     0.043078   
H327     H      0.944370000000     0.243900000000     0.501960000000     0.0341573  
H328     H      0.837990000000     0.379440000000     0.582160000000     0.034817   
H329     H      0.868410000000     0.268140000000     0.589400000000     0.0508804  
H330     H      0.933160000000     0.367540000000     0.578560000000     0.0528598  
H331     H      0.901260000000     0.232760000000     0.634970000000     0.0354197  
H332     H      0.897980000000     0.361410000000     0.487170000000     0.0264961  
H333     H      0.897650000000     0.276230000000     0.502890000000     0.0536534  
H334     H      0.881670000000     0.357550000000     0.626050000000     0.0501955  
H335     H      0.922330000000     0.393060000000     0.504400000000     0.0351314  
H336     H      0.960170000000     0.264490000000     0.550300000000     0.0257406  
H337     H      0.869440000000     0.633460000000     0.460330000000     0.0430705  
H338     H      0.762410000000     0.696930000000     0.505630000000     0.0262467  
H339     H      0.828580000000     0.598810000000     0.581720000000     0.026486   
H340     H      0.784240000000     0.621490000000     0.541350000000     0.0428572  
H341     H      0.794190000000     0.667980000000     0.559660000000     0.0428623  
H342     H      0.835580000000     0.666410000000     0.422000000000     0.0429734  
H343     H      0.886350000000     0.580890000000     0.484090000000     0.0345201  
H344     H      0.779070000000     0.723220000000     0.546610000000     0.0349969  
H345     H      0.789990000000     0.597070000000     0.493080000000     0.0521562  
H346     H      0.853420000000     0.692840000000     0.462430000000     0.0512874  
H347     H      0.802600000000     0.568780000000     0.563400000000     0.0349503  
H348     H      0.786620000000     0.694100000000     0.423540000000     0.0278218  
H349     H      0.842550000000     0.603910000000     0.441680000000     0.0501738  
H350     H      0.826600000000     0.692670000000     0.550800000000     0.0528295  
H351     H      0.817830000000     0.720250000000     0.409660000000     0.0358051  
H352     H      0.880640000000     0.606940000000     0.531800000000     0.0289369  
H353     H      0.848030000000     0.327440000000     0.988120000000     0.0426839  
H354     H      0.901060000000     0.432250000000     0.097320000000     0.0328676  
H355     H      0.923620000000     0.304290000000     0.070800000000     0.0269202  
H356     H      0.889540000000     0.330550000000     0.126540000000     0.0424387  
H357     H      0.870000000000     0.387830000000     0.124150000000     0.0492622  
H358     H      0.821190000000     0.368700000000     0.018630000000     0.0429206  
H359     H      0.867200000000     0.273710000000     0.979490000000     0.0358615  
H360     H      0.905220000000     0.415760000000     0.041050000000     0.0318296  
H361     H      0.859130000000     0.303660000000     0.116050000000     0.0518163  
H362     H      0.855030000000     0.385420000000     0.991140000000     0.0500986  
H363     H      0.910040000000     0.277790000000     0.113880000000     0.0358296  
H364     H      0.818530000000     0.410710000000     0.074890000000     0.0302403  
H365     H      0.832250000000     0.302070000000     0.031330000000     0.0500418  
H366     H      0.905980000000     0.375010000000     0.097990000000     0.0435737  
H367     H      0.818060000000     0.425650000000     0.017240000000     0.0340471  
H368     H      0.897720000000     0.301550000000     0.988090000000     0.0282957  
H369     H      0.887420000000     0.714140000000     0.056080000000     0.0433177  
H370     H      0.814790000000     0.646830000000     0.026250000000     0.0292621  
H371     H      0.878910000000     0.755400000000     0.926350000000     0.0277722  
H372     H      0.839110000000     0.716080000000     0.923230000000     0.0429242  
H373     H      0.819950000000     0.671100000000     0.951140000000     0.0429748  
H374     H      0.910000000000     0.676350000000     0.022250000000     0.0429547  
H375     H      0.889850000000     0.771650000000     0.054370000000     0.0342306  
H376     H      0.813050000000     0.617600000000     0.982120000000     0.0351747  
H377     H      0.818120000000     0.732380000000     0.971420000000     0.0508934  
H378     H      0.903490000000     0.647910000000     0.979510000000     0.0526358  
H379     H      0.841330000000     0.773770000000     0.924450000000     0.0350673  
H380     H      0.869560000000     0.651710000000     0.072260000000     0.0265521  
H381     H      0.849930000000     0.731160000000     0.055150000000     0.0535949  
H382     H      0.851020000000     0.645610000000     0.934400000000     0.0501132  
H383     H      0.899460000000     0.624700000000     0.056930000000     0.0353726  
H384     H      0.908280000000     0.754290000000     0.005330000000     0.0256421  
H385     H      0.929320000000     0.509280000000     0.822900000000     0.0426167  
H386     H      0.845180000000     0.463140000000     0.718080000000     0.0281701  
H387     H      0.836600000000     0.530480000000     0.854560000000     0.0283742  
H388     H      0.832030000000     0.478320000000     0.814220000000     0.0429852  
H389     H      0.827690000000     0.511410000000     0.761220000000     0.0431411  
H390     H      0.929600000000     0.504850000000     0.751110000000     0.0426683  
H391     H      0.920390000000     0.520460000000     0.906170000000     0.0363638  
H392     H      0.823830000000     0.490240000000     0.683290000000     0.0357977  
H393     H      0.858620000000     0.462630000000     0.853830000000     0.0514464  
H394     H      0.908230000000     0.534390000000     0.721810000000     0.0497536  
H395     H      0.823080000000     0.499830000000     0.891400000000     0.0355723  
H396     H      0.910070000000     0.464170000000     0.703830000000     0.0282619  
H397     H      0.915200000000     0.476630000000     0.854320000000     0.0496822  
H398     H      0.849370000000     0.534260000000     0.722720000000     0.051797   
H399     H      0.923200000000     0.494680000000     0.666940000000     0.0362636  
H400     H      0.900400000000     0.545800000000     0.867460000000     0.0283168  
H401     H      0.795420000000     0.520400000000     0.260920000000     0.0422011  
H402     H      0.876650000000     0.445340000000     0.346010000000     0.0255309  
H403     H      0.865170000000     0.569780000000     0.224020000000     0.0253135  
H404     H      0.893200000000     0.531700000000     0.265280000000     0.0424277  
H405     H      0.897430000000     0.489040000000     0.307350000000     0.0424992  
H406     H      0.798680000000     0.482480000000     0.311980000000     0.0422756  
H407     H      0.795410000000     0.531520000000     0.173960000000     0.0353573  
H408     H      0.900750000000     0.466970000000     0.384800000000     0.0347068  
H409     H      0.885740000000     0.501700000000     0.223230000000     0.0527554  
H410     H      0.809300000000     0.513450000000     0.350360000000     0.0494789  
H411     H      0.892850000000     0.551970000000     0.186180000000     0.0345592  
H412     H      0.819370000000     0.443590000000     0.357810000000     0.0266395  
H413     H      0.810720000000     0.490760000000     0.223650000000     0.0498332  
H414     H      0.883980000000     0.516050000000     0.350530000000     0.0525411  
H415     H      0.801230000000     0.469500000000     0.398030000000     0.0352742  
H416     H      0.808790000000     0.561030000000     0.212740000000     0.0264118  
H417     H      0.324650000000     0.920170000000     0.580320000000     0.0428963  
H418     H      0.255190000000     0.921100000000     0.458260000000     0.028132   
H419     H      0.341140000000     0.826210000000     0.569270000000     0.028468   
H420     H      0.312110000000     0.835740000000     0.499030000000     0.0427137  
H421     H      0.281140000000     0.871140000000     0.457400000000     0.0426097  
H422     H      0.277180000000     0.911110000000     0.595760000000     0.0428605  
H423     H      0.379670000000     0.904060000000     0.595580000000     0.03478    
H424     H      0.228310000000     0.890990000000     0.442150000000     0.0347236  
H425     H      0.340840000000     0.862690000000     0.477690000000     0.0506315  
H426     H      0.251880000000     0.879530000000     0.584540000000     0.052311   
H427     H      0.365360000000     0.819410000000     0.519690000000     0.0349907  
H428     H      0.250150000000     0.944450000000     0.542070000000     0.0261567  
H429     H      0.347420000000     0.916850000000     0.529610000000     0.0523946  
H430     H      0.252950000000     0.854170000000     0.496010000000     0.0500028  
H431     H      0.222210000000     0.927340000000     0.580140000000     0.0345368  
H432     H      0.351210000000     0.877400000000     0.617070000000     0.0264522  
H433     H      0.652960000000     0.811070000000     0.425150000000     0.0430265  
H434     H      0.593160000000     0.848520000000     0.580540000000     0.0267295  
H435     H      0.701160000000     0.877380000000     0.502370000000     0.0267246  
H436     H      0.664570000000     0.856520000000     0.559010000000     0.0431923  
H437     H      0.626300000000     0.882650000000     0.533370000000     0.0430104  
H438     H      0.608970000000     0.795090000000     0.460710000000     0.0429817  
H439     H      0.710610000000     0.810440000000     0.415910000000     0.0346929  
H440     H      0.571520000000     0.881590000000     0.561370000000     0.035306   
H441     H      0.679720000000     0.818610000000     0.552380000000     0.0526088  
H442     H      0.588550000000     0.829320000000     0.441890000000     0.0502883  
H443     H      0.721610000000     0.856630000000     0.546390000000     0.0353406  
H444     H      0.582850000000     0.794480000000     0.534500000000     0.0290554  
H445     H      0.672220000000     0.789060000000     0.469710000000     0.0502741  
H446     H      0.599080000000     0.881900000000     0.487770000000     0.0520526  
H447     H      0.554630000000     0.796050000000     0.488870000000     0.0352301  
H448     H      0.694180000000     0.848690000000     0.420620000000     0.0291023  
H449     H      0.305680000000     0.889710000000     0.035040000000     0.043314   
H450     H      0.369630000000     0.811450000000     0.032790000000     0.0288026  
H451     H      0.276060000000     0.875570000000     0.899890000000     0.0279924  
H452     H      0.310820000000     0.832060000000     0.911020000000     0.0430669  
H453     H      0.350080000000     0.810390000000     0.954280000000     0.0429436  
H454     H      0.348030000000     0.906300000000     0.005250000000     0.0433299  
H455     H      0.249070000000     0.897090000000     0.020530000000     0.03358    
H456     H      0.401180000000     0.802940000000     0.994010000000     0.0344141  
H457     H      0.287800000000     0.816610000000     0.957760000000     0.0507317  
H458     H      0.378400000000     0.894340000000     0.968230000000     0.0534889  
H459     H      0.253940000000     0.840090000000     0.898850000000     0.03495    
H460     H      0.366570000000     0.869500000000     0.065620000000     0.0260752  
H461     H      0.284910000000     0.854220000000     0.036060000000     0.0537942  
H462     H      0.379210000000     0.837200000000     0.934480000000     0.0501209  
H463     H      0.396760000000     0.895810000000     0.048780000000     0.0347604  
H464     H      0.272770000000     0.910100000000     0.973470000000     0.0256884  
H465     H      0.645450000000     0.800060000000     0.083620000000     0.0427861  
H466     H      0.717540000000     0.817000000000     0.962960000000     0.0270659  
H467     H      0.615250000000     0.889820000000     0.079320000000     0.0280071  
H468     H      0.646000000000     0.888370000000     0.009450000000     0.0430744  
H469     H      0.682120000000     0.860670000000     0.965760000000     0.0429429  
H470     H      0.692080000000     0.811980000000     0.096850000000     0.0428387  
H471     H      0.588200000000     0.806570000000     0.096110000000     0.0352077  
H472     H      0.737480000000     0.852640000000     0.950530000000     0.0358723  
H473     H      0.622130000000     0.858310000000     0.984390000000     0.0510972  
H474     H      0.709950000000     0.849040000000     0.094560000000     0.0523022  
H475     H      0.591230000000     0.895850000000     0.029380000000     0.0357228  
H476     H      0.727090000000     0.790330000000     0.041120000000     0.0262093  
H477     H      0.623640000000     0.801220000000     0.031780000000     0.0519847  
H478     H      0.705640000000     0.880720000000     0.007920000000     0.0517048  
H479     H      0.749760000000     0.810120000000     0.083810000000     0.0352394  
H480     H      0.611570000000     0.836370000000     0.121600000000     0.026603   
H481     H      0.473770000000     0.878450000000     0.780830000000     0.043532   
H482     H      0.474830000000     0.799830000000     0.885340000000     0.0296645  
H483     H      0.509470000000     0.799520000000     0.696740000000     0.0294179  
H484     H      0.483010000000     0.777910000000     0.761960000000     0.0428252  
H485     H      0.506100000000     0.777400000000     0.825230000000     0.0426796  
H486     H      0.520470000000     0.876970000000     0.806560000000     0.0431388  
H487     H      0.472920000000     0.884610000000     0.696600000000     0.0356287  
H488     H      0.510230000000     0.786440000000     0.910640000000     0.0359545  
H489     H      0.448050000000     0.798510000000     0.750730000000     0.0493427  
H490     H      0.546310000000     0.852600000000     0.836590000000     0.049956   
H491     H      0.472180000000     0.786370000000     0.677830000000     0.036172   
H492     H      0.480750000000     0.870820000000     0.869050000000     0.0296655  
H493     H      0.444670000000     0.855260000000     0.755600000000     0.0512828  
H494     H      0.540050000000     0.797510000000     0.842520000000     0.0488231  
H495     H      0.517290000000     0.883440000000     0.892080000000     0.0344709  
H496     H      0.509180000000     0.867450000000     0.713570000000     0.0289859  
H497     H      0.437130000000     0.825390000000     0.308930000000     0.0431347  
H498     H      0.448660000000     0.898670000000     0.198410000000     0.0287088  
H499     H      0.494810000000     0.895160000000     0.382560000000     0.0297955  
H500     H      0.463650000000     0.922670000000     0.326850000000     0.042675   
H501     H      0.479950000000     0.920430000000     0.259290000000     0.0429139  
H502     H      0.482040000000     0.819290000000     0.278270000000     0.0434436  
H503     H      0.443490000000     0.817820000000     0.393470000000     0.0354222  
H504     H      0.484870000000     0.911970000000     0.175250000000     0.0363671  
H505     H      0.428330000000     0.906640000000     0.347610000000     0.0490402  
H506     H      0.512500000000     0.839880000000     0.251610000000     0.0514854  
H507     H      0.463370000000     0.913790000000     0.411890000000     0.0359732  
H508     H      0.446330000000     0.833240000000     0.212840000000     0.0283061  
H509     H      0.415350000000     0.852190000000     0.341460000000     0.0501     
H510     H      0.513000000000     0.897520000000     0.244800000000     0.0503356  
H511     H      0.480540000000     0.813130000000     0.193850000000     0.0360758  
H512     H      0.480060000000     0.827450000000     0.367500000000     0.0289254  
N1       N      0.224120000000     0.129720000000     0.513830000000    -0.175539   
N2       N      0.123980000000     0.000240000000     0.504490000000    -0.175316   
N3       N      0.225410000000     0.067910000000     0.990230000000    -0.174848   
N4       N      0.133780000000     0.932640000000     0.973690000000    -0.175342   
N5       N      0.988210000000     0.122830000000     0.527270000000    -0.174961   
N6       N      0.123060000000     0.215170000000     0.513770000000    -0.175189   
N7       N      0.985370000000     0.180890000000     0.025230000000    -0.17415    
N8       N      0.142540000000     0.172590000000     0.006050000000    -0.174472   
N9       N      0.035450000000     0.902490000000     0.491490000000    -0.174723   
N10      N      0.904050000000     0.804080000000     0.479460000000    -0.175166   
N11      N      0.825450000000     0.909750000000     0.480610000000    -0.174386   
N12      N      0.873220000000     0.060080000000     0.505110000000    -0.174119   
N13      N      0.924540000000     0.891340000000     0.016160000000    -0.175495   
N14      N      0.070240000000     0.817550000000     0.994790000000    -0.175408   
N15      N      0.807260000000     0.949230000000     0.044770000000    -0.175418   
N16      N      0.896840000000     0.085950000000     0.053160000000    -0.175179   
N17      N      0.179960000000     0.660050000000     0.528510000000    -0.175125   
N18      N      0.133290000000     0.813680000000     0.496760000000    -0.175307   
N19      N      0.207580000000     0.475350000000     0.529320000000    -0.174936   
N20      N      0.206420000000     0.315430000000     0.500770000000    -0.174947   
N21      N      0.184830000000     0.595170000000     0.039470000000    -0.174826   
N22      N      0.186720000000     0.753450000000     0.981560000000    -0.175035   
N23      N      0.210730000000     0.410810000000     0.016910000000    -0.175028   
N24      N      0.246060000000     0.252110000000     0.026320000000    -0.175322   
N25      N      0.202100000000     0.507370000000     0.890950000000    -0.174626   
N26      N      0.199010000000     0.572690000000     0.665580000000    -0.174685   
N27      N      0.195470000000     0.494610000000     0.168230000000    -0.174614   
N28      N      0.186920000000     0.567010000000     0.388190000000    -0.174579   
N29      N      0.468790000000     0.232440000000     0.467950000000    -0.174986   
N30      N      0.309820000000     0.227230000000     0.501850000000    -0.174833   
N31      N      0.808360000000     0.174010000000     0.545220000000    -0.174899   
N32      N      0.649850000000     0.194340000000     0.511140000000    -0.174651   
N33      N      0.328550000000     0.151500000000     0.008830000000    -0.175593   
N34      N      0.471690000000     0.214700000000     0.947830000000    -0.176078   
N35      N      0.801240000000     0.174220000000     0.074750000000    -0.175566   
N36      N      0.648790000000     0.198630000000     0.034190000000    -0.174694   
N37      N      0.592100000000     0.212660000000     0.860670000000    -0.174962   
N38      N      0.542980000000     0.220140000000     0.627590000000    -0.17481    
N39      N      0.527300000000     0.202390000000     0.121120000000    -0.175477   
N40      N      0.575550000000     0.206290000000     0.354550000000    -0.174869   
N41      N      0.878560000000     0.388570000000     0.540650000000    -0.174798   
N42      N      0.922300000000     0.235520000000     0.567540000000    -0.175374   
N43      N      0.798250000000     0.724710000000     0.477910000000    -0.174712   
N44      N      0.845920000000     0.572390000000     0.526070000000    -0.174741   
N45      N      0.860240000000     0.433130000000     0.055260000000    -0.175236   
N46      N      0.889830000000     0.272790000000     0.045970000000    -0.174532   
N47      N      0.855080000000     0.618690000000     0.022720000000    -0.174851   
N48      N      0.865270000000     0.775490000000     0.989720000000    -0.175432   
N49      N      0.873440000000     0.488170000000     0.670980000000    -0.174325   
N50      N      0.870490000000     0.514850000000     0.902430000000    -0.17431    
N51      N      0.851250000000     0.470140000000     0.396270000000    -0.175155   
N52      N      0.844800000000     0.539540000000     0.175330000000    -0.175161   
N53      N      0.222490000000     0.910150000000     0.510300000000    -0.174783   
N54      N      0.375280000000     0.860840000000     0.558680000000    -0.174591   
N55      N      0.560380000000     0.837980000000     0.528560000000    -0.174481   
N56      N      0.719110000000     0.834390000000     0.479720000000    -0.174609   
N57      N      0.401220000000     0.848650000000     0.024140000000    -0.175244   
N58      N      0.248840000000     0.868340000000     0.959690000000    -0.175644   
N59      N      0.746680000000     0.832220000000     0.017260000000    -0.174946   
N60      N      0.586660000000     0.851380000000     0.063060000000    -0.174839   
N61      N      0.504920000000     0.836060000000     0.906420000000    -0.174407   
N62      N      0.478380000000     0.835950000000     0.680690000000    -0.17444    
N63      N      0.478830000000     0.862240000000     0.178660000000    -0.174592   
N64      N      0.460670000000     0.863930000000     0.407300000000    -0.174519   
O1       O      0.540780000000     0.875390000000     0.045280000000    -0.402805   
O2       O      0.447360000000     0.874570000000     0.030570000000    -0.402498   
O3       O      0.488490000000     0.881490000000     0.106310000000    -0.401047   
O4       O      0.499560000000     0.868170000000     0.969050000000    -0.401071   
O5       O      0.501400000000     0.817050000000     0.980090000000    -0.400535   
O6       O      0.485680000000     0.830330000000     0.116190000000    -0.400929   
O7       O      0.447270000000     0.822950000000     0.035570000000    -0.398278   
O8       O      0.540360000000     0.824740000000     0.060600000000    -0.397588   
O9       O      0.424790000000     0.880760000000     0.557920000000    -0.39787    
O10      O      0.518120000000     0.869090000000     0.543010000000    -0.398137   
O11      O      0.467520000000     0.882300000000     0.480950000000    -0.400508   
O12      O      0.475430000000     0.868040000000     0.618110000000    -0.403479   
O13      O      0.469460000000     0.817210000000     0.607510000000    -0.398161   
O14      O      0.459710000000     0.831730000000     0.470120000000    -0.401658   
O15      O      0.510730000000     0.818740000000     0.529450000000    -0.400479   
O16      O      0.417890000000     0.830140000000     0.545930000000    -0.400304   
O17      O      0.830730000000     0.571330000000     0.023630000000    -0.39871    
O18      O      0.833110000000     0.478130000000     0.042940000000    -0.399716   
O19      O      0.825200000000     0.530970000000     0.102690000000    -0.397986   
O20      O      0.838550000000     0.518330000000     0.965500000000    -0.400755   
O21      O      0.889780000000     0.522050000000     0.975570000000    -0.399561   
O22      O      0.876540000000     0.532880000000     0.112850000000    -0.402282   
O23      O      0.884480000000     0.480480000000     0.053040000000    -0.399891   
O24      O      0.881740000000     0.573770000000     0.036930000000    -0.401458   
O25      O      0.845080000000     0.429960000000     0.544050000000    -0.398362   
O26      O      0.828570000000     0.522520000000     0.535420000000    -0.399005   
O27      O      0.830820000000     0.472160000000     0.469510000000    -0.397876   
O28      O      0.842560000000     0.480440000000     0.607690000000    -0.401344   
O29      O      0.893250000000     0.488540000000     0.597270000000    -0.398797   
O30      O      0.881570000000     0.480110000000     0.459260000000    -0.402471   
O31      O      0.879040000000     0.530800000000     0.522650000000    -0.399851   
O32      O      0.895540000000     0.438480000000     0.531600000000    -0.401194   
O33      O      0.606140000000     0.228840000000     0.017970000000    -0.398078   
O34      O      0.516940000000     0.236900000000     0.973120000000    -0.399067   
O35      O      0.545900000000     0.230300000000     0.060080000000    -0.401991   
O36      O      0.577350000000     0.235820000000     0.928660000000    -0.398269   
O37      O      0.574610000000     0.184390000000     0.922240000000    -0.401614   
O38      O      0.542550000000     0.178900000000     0.053570000000    -0.398923   
O39      O      0.514710000000     0.185590000000     0.963530000000    -0.403313   
O40      O      0.602810000000     0.177520000000     0.010070000000    -0.403318   
O41      O      0.518840000000     0.248220000000     0.480860000000    -0.400773   
O42      O      0.610260000000     0.228910000000     0.498430000000    -0.400238   
O43      O      0.570540000000     0.235380000000     0.420430000000    -0.399317   
O44      O      0.558280000000     0.241690000000     0.558840000000    -0.399061   
O45      O      0.544810000000     0.191810000000     0.560710000000    -0.400171   
O46      O      0.562950000000     0.184320000000     0.424090000000    -0.399995   
O47      O      0.598940000000     0.178780000000     0.506810000000    -0.399296   
O48      O      0.508570000000     0.197580000000     0.477470000000    -0.398806   
O49      O      0.166140000000     0.545840000000     0.030440000000    -0.401404   
O50      O      0.179020000000     0.452970000000     0.025750000000    -0.401301   
O51      O      0.170880000000     0.497060000000     0.098010000000    -0.398714   
O52      O      0.174580000000     0.501540000000     0.958280000000    -0.399201   
O53      O      0.225420000000     0.511170000000     0.961850000000    -0.399663   
O54      O      0.222480000000     0.501290000000     0.100740000000    -0.399691   
O55      O      0.230360000000     0.460090000000     0.023020000000    -0.398485   
O56      O      0.217180000000     0.552790000000     0.039070000000    -0.398273   
O57      O      0.175060000000     0.517430000000     0.532010000000    -0.399766   
O58      O      0.161020000000     0.610420000000     0.530070000000    -0.400122   
O59      O      0.164700000000     0.562760000000     0.460060000000    -0.398508   
O60      O      0.171020000000     0.565490000000     0.599400000000    -0.401894   
O61      O      0.222250000000     0.572410000000     0.594060000000    -0.397272   
O62      O      0.215740000000     0.570770000000     0.454400000000    -0.400442   
O63      O      0.212120000000     0.617930000000     0.522900000000    -0.400485   
O64      O      0.226050000000     0.525000000000     0.523610000000    -0.400295   
O65      O      0.853950000000     0.814210000000     0.041060000000    -0.399714   
O66      O      0.821720000000     0.900640000000     0.069130000000    -0.398633   
O67      O      0.793070000000     0.840630000000     0.054850000000    -0.397045   
O68      O      0.881690000000     0.873510000000     0.055050000000    -0.399474   
O69      O      0.878690000000     0.880610000000     0.979090000000    -0.401696   
O70      O      0.788760000000     0.853280000000     0.980670000000    -0.403275   
O71      O      0.820030000000     0.910740000000     0.993820000000    -0.401977   
O72      O      0.846710000000     0.822640000000     0.966000000000    -0.401133   
O73      O      0.801860000000     0.770910000000     0.517000000000    -0.398185   
O74      O      0.820290000000     0.863200000000     0.518090000000    -0.400652   
O75      O      0.765120000000     0.826890000000     0.517780000000    -0.400097   
O76      O      0.857500000000     0.808350000000     0.517550000000    -0.40012    
O77      O      0.858120000000     0.811980000000     0.440940000000    -0.399138   
O78      O      0.764220000000     0.822620000000     0.441210000000    -0.397573   
O79      O      0.816640000000     0.864200000000     0.441520000000    -0.398785   
O80      O      0.806330000000     0.770740000000     0.440470000000    -0.400308   
O81      O      0.884880000000     0.225270000000     0.010980000000    -0.400059   
O82      O      0.892160000000     0.131680000000     0.013840000000    -0.402376   
O83      O      0.842460000000     0.174360000000     0.025030000000    -0.401625   
O84      O      0.934800000000     0.181370000000     0.999870000000    -0.400756   
O85      O      0.944050000000     0.180290000000     0.075390000000    -0.399659   
O86      O      0.851210000000     0.180810000000     0.100200000000    -0.399133   
O87      O      0.897850000000     0.133140000000     0.090150000000    -0.397702   
O88      O      0.897640000000     0.227310000000     0.085340000000    -0.399329   
O89      O      0.913210000000     0.197270000000     0.514380000000    -0.399348   
O90      O      0.884130000000     0.110160000000     0.483110000000    -0.39833    
O91      O      0.853530000000     0.168380000000     0.503790000000    -0.398904   
O92      O      0.943040000000     0.139580000000     0.493790000000    -0.400617   
O93      O      0.943800000000     0.130990000000     0.569540000000    -0.399208   
O94      O      0.852130000000     0.152570000000     0.576890000000    -0.400941   
O95      O      0.886450000000     0.097620000000     0.557520000000    -0.401173   
O96      O      0.908570000000     0.186340000000     0.589170000000    -0.401046   
O97      O      0.237790000000     0.203350000000     0.054520000000    -0.403008   
O98      O      0.231130000000     0.110610000000     0.036640000000    -0.400901   
O99      O      0.281850000000     0.154200000000     0.046710000000    -0.399435   
O100     O      0.187780000000     0.160860000000     0.044270000000    -0.40077    
O101     O      0.189680000000     0.170520000000     0.968900000000    -0.399891   
O102     O      0.282630000000     0.155780000000     0.969870000000    -0.401941   
O103     O      0.229360000000     0.117120000000     0.960510000000    -0.398681   
O104     O      0.243780000000     0.209520000000     0.978760000000    -0.397927   
O105     O      0.211220000000     0.270660000000     0.542510000000    -0.400094   
O106     O      0.222310000000     0.177340000000     0.549190000000    -0.3991     
O107     O      0.264200000000     0.229630000000     0.542740000000    -0.398348   
O108     O      0.170560000000     0.219000000000     0.549040000000    -0.401062   
O109     O      0.168430000000     0.218900000000     0.472300000000    -0.399741   
O110     O      0.262500000000     0.222870000000     0.466580000000    -0.401538   
O111     O      0.218270000000     0.174590000000     0.472690000000    -0.402123   
O112     O      0.213530000000     0.268300000000     0.465800000000    -0.399672   
O113     O      0.167760000000     0.795430000000     0.942240000000    -0.400206   
O114     O      0.145450000000     0.886840000000     0.937010000000    -0.398604   
O115     O      0.202300000000     0.851510000000     0.930760000000    -0.400309   
O116     O      0.111400000000     0.829980000000     0.948250000000    -0.401288   
O117     O      0.118240000000     0.829780000000     0.024390000000    -0.399142   
O118     O      0.206700000000     0.860190000000     0.006260000000    -0.400189   
O119     O      0.147300000000     0.888960000000     0.013720000000    -0.401381   
O120     O      0.178410000000     0.800280000000     0.017080000000    -0.399192   
O121     O      0.133500000000     0.860820000000     0.460770000000    -0.40244    
O122     O      0.128470000000     0.954520000000     0.464630000000    -0.400873   
O123     O      0.177760000000     0.909070000000     0.467540000000    -0.400686   
O124     O      0.083730000000     0.905360000000     0.457870000000    -0.399391   
O125     O      0.080170000000     0.904140000000     0.534470000000    -0.399825   
O126     O      0.174260000000     0.908850000000     0.544220000000    -0.397877   
O127     O      0.124830000000     0.953180000000     0.541220000000    -0.400205   
O128     O      0.128830000000     0.859180000000     0.537270000000    -0.399      


