data_structure

_audit_creation_method RASPA-1.0
_audit_creation_date 2023-5-25
_audit_author_name 'Poobodin Mano'

_cell_length_a    28.8785
_cell_length_b    27.3427
_cell_length_c    28.0612
_cell_angle_alpha 90
_cell_angle_beta  90.0014
_cell_angle_gamma 90.0044
_cell_volume      22157.6

_symmetry_cell_setting          triclinic
_symmetry_space_group_name_Hall 'P 1'
_symmetry_space_group_name_H-M  'P 1'
_symmetry_Int_Tables_number     1

_symmetry_equiv_pos_as_xyz 'x,y,z'

loop_
_atom_site_label
_atom_site_type_symbol
_atom_site_fract_x
_atom_site_fract_y
_atom_site_fract_z
_atom_site_charge
C1       C      0.932480000000     0.007680000000     0.108330000000     0.479871   
C2       C      0.959210000000     0.011350000000     0.929350000000     0.47432    
C3       C      0.858950000000     0.005090000000     0.007530000000     0.481873   
C4       C      0.032720000000     0.004350000000     0.034200000000     0.480227   
C5       C      0.016110000000     0.008610000000     0.595000000000     0.476652   
C6       C      0.048160000000     0.002790000000     0.416990000000     0.476924   
C7       C      0.944980000000     0.007410000000     0.490290000000     0.481775   
C8       C      0.118210000000     0.009610000000     0.522490000000     0.474342   
C9       C      0.928970000000     0.503590000000     0.099050000000     0.478665   
C10      C      0.967930000000     0.508700000000     0.922320000000     0.479155   
C11      C      0.862350000000     0.510280000000     0.991790000000     0.477315   
C12      C      0.033700000000     0.506620000000     0.033990000000     0.474888   
C13      C      0.025170000000     0.509770000000     0.587340000000     0.475067   
C14      C      0.046380000000     0.505880000000     0.407360000000     0.472686   
C15      C      0.949460000000     0.505520000000     0.483770000000     0.478893   
C16      C      0.124000000000     0.505620000000     0.506230000000     0.482035   
C17      C      0.456020000000     0.007680000000     0.131310000000     0.483422   
C18      C      0.436800000000     0.011120000000     0.951340000000     0.478555   
C19      C      0.359400000000     0.005990000000     0.050770000000     0.474174   
C20      C      0.533980000000     0.004230000000     0.029300000000     0.476569   
C21      C      0.551650000000     0.011750000000     0.639630000000     0.472537   
C22      C      0.513790000000     0.005510000000     0.462910000000     0.472706   
C23      C      0.448250000000     0.006290000000     0.571820000000     0.478317   
C24      C      0.620030000000     0.008580000000     0.531840000000     0.476648   
C25      C      0.438650000000     0.505580000000     0.135580000000     0.480236   
C26      C      0.475430000000     0.507260000000     0.958710000000     0.485047   
C27      C      0.369270000000     0.509160000000     0.026760000000     0.47952    
C28      C      0.541300000000     0.506290000000     0.066070000000     0.471752   
C29      C      0.527730000000     0.509220000000     0.628430000000     0.480477   
C30      C      0.549460000000     0.506020000000     0.448880000000     0.476806   
C31      C      0.450470000000     0.505420000000     0.528040000000     0.476876   
C32      C      0.624870000000     0.509780000000     0.551660000000     0.475262   
C33      C      0.523460000000     0.556560000000     0.703440000000     0.0148875  
C34      C      0.488490000000     0.461890000000     0.883780000000     0.0259484  
C35      C      0.487800000000     0.555910000000     0.885640000000     0.190428   
C36      C      0.526030000000     0.464400000000     0.845430000000    -0.113916   
C37      C      0.488070000000     0.556320000000     0.744040000000    -0.10163    
C38      C      0.525120000000     0.555310000000     0.846780000000    -0.153112   
C39      C      0.495570000000     0.510610000000     0.773440000000     0.0241752  
C40      C      0.518180000000     0.510220000000     0.816430000000     0.0456289  
C41      C      0.522000000000     0.463120000000     0.704010000000     0.015311   
C42      C      0.486380000000     0.465130000000     0.744260000000    -0.103716   
C43      C      0.557740000000     0.459850000000     0.373100000000     0.0172528  
C44      C      0.427730000000     0.550000000000     0.211840000000     0.027416   
C45      C      0.428130000000     0.459120000000     0.210980000000     0.191921   
C46      C      0.468800000000     0.552890000000     0.246060000000    -0.108922   
C47      C      0.516400000000     0.456960000000     0.339060000000    -0.0976494  
C48      C      0.468880000000     0.456700000000     0.246030000000    -0.151811   
C49      C      0.505840000000     0.504940000000     0.312890000000     0.00999847 
C50      C      0.479340000000     0.504840000000     0.271990000000     0.043466   
C51      C      0.558450000000     0.550210000000     0.372120000000     0.0171385  
C52      C      0.516890000000     0.553140000000     0.338450000000    -0.0979983  
C53      C      0.577070000000     0.651380000000     0.524340000000    -0.00177924 
C54      C      0.497010000000     0.863170000000     0.572380000000     0.0133034  
C55      C      0.557030000000     0.864650000000     0.511810000000     0.176286   
C56      C      0.506100000000     0.809270000000     0.584560000000    -0.10117    
C57      C      0.570050000000     0.705480000000     0.512280000000    -0.0868751  
C58      C      0.573470000000     0.812630000000     0.522620000000    -0.149006   
C59      C      0.537710000000     0.732170000000     0.546780000000     0.00519889 
C60      C      0.536950000000     0.782470000000     0.548670000000     0.0419235  
C61      C      0.512920000000     0.648570000000     0.578510000000    -0.00253116 
C62      C      0.500080000000     0.702310000000     0.571590000000    -0.087127   
C63      C      0.555690000000     0.363780000000     0.499860000000    -0.000234914
C64      C      0.514120000000     0.153140000000     0.587930000000     0.0133364  
C65      C      0.571620000000     0.150790000000     0.524970000000     0.176785   
C66      C      0.499730000000     0.205860000000     0.576630000000    -0.101103   
C67      C      0.567450000000     0.309900000000     0.508600000000    -0.0873613  
C68      C      0.560710000000     0.202700000000     0.507760000000    -0.149229   
C69      C      0.533240000000     0.283150000000     0.541170000000     0.00539967 
C70      C      0.533710000000     0.232930000000     0.544090000000     0.0406783  
C71      C      0.497670000000     0.366100000000     0.560930000000    -0.00133076 
C72      C      0.505310000000     0.313300000000     0.576830000000    -0.0873328  
C73      C      0.483590000000     0.865560000000     0.068070000000    -0.00280548 
C74      C      0.425930000000     0.649550000000     0.010120000000     0.0133881  
C75      C      0.457280000000     0.653920000000     0.090320000000     0.182433   
C76      C      0.440570000000     0.701910000000     0.997850000000    -0.100788   
C77      C      0.473330000000     0.812490000000     0.080960000000    -0.0866253  
C78      C      0.477390000000     0.705190000000     0.083010000000    -0.146194   
C79      C      0.455600000000     0.782560000000     0.038870000000     0.00593196 
C80      C      0.454960000000     0.732290000000     0.041200000000     0.042563   
C81      C      0.441040000000     0.864260000000     0.994830000000    -0.000186096
C82      C      0.430590000000     0.809290000000     0.998400000000    -0.0872455  
C83      C      0.427890000000     0.364560000000     0.082490000000     0.00106851 
C84      C      0.474540000000     0.150840000000     0.005920000000     0.0120067  
C85      C      0.406440000000     0.151590000000     0.056410000000     0.176764   
C86      C      0.488730000000     0.203100000000     0.018920000000    -0.101102   
C87      C      0.414720000000     0.311660000000     0.071030000000    -0.0880803  
C88      C      0.414830000000     0.204340000000     0.073180000000    -0.148319   
C89      C      0.453170000000     0.282530000000     0.046470000000     0.00614888 
C90      C      0.450420000000     0.232360000000     0.043470000000     0.0399591  
C91      C      0.496380000000     0.363440000000     0.034100000000     0.00147255 
C92      C      0.489470000000     0.310570000000     0.017630000000    -0.0888404  
C93      C      0.562540000000     0.058080000000     0.714980000000     0.0156045  
C94      C      0.430660000000     0.967020000000     0.874330000000     0.0284678  
C95      C      0.430810000000     0.057950000000     0.875530000000     0.190599   
C96      C      0.473020000000     0.964480000000     0.841760000000    -0.109346   
C97      C      0.521590000000     0.060860000000     0.749590000000    -0.0963917  
C98      C      0.473050000000     0.060450000000     0.842250000000    -0.154893   
C99      C      0.510790000000     0.012690000000     0.775420000000     0.00834404 
C100     C      0.483840000000     0.012570000000     0.816020000000     0.0430686  
C101     C      0.563550000000     0.967810000000     0.716050000000     0.0169909  
C102     C      0.522200000000     0.964550000000     0.749930000000    -0.0970165  
C103     C      0.498810000000     0.958090000000     0.389390000000     0.0114525  
C104     C      0.462040000000     0.052970000000     0.207450000000     0.025611   
C105     C      0.458750000000     0.959590000000     0.206120000000     0.190676   
C106     C      0.498370000000     0.050080000000     0.247010000000    -0.113084   
C107     C      0.461270000000     0.960280000000     0.350880000000    -0.0996393  
C108     C      0.494610000000     0.958850000000     0.246480000000    -0.152043   
C109     C      0.469150000000     0.005400000000     0.320780000000     0.0217478  
C110     C      0.489090000000     0.004660000000     0.276360000000     0.044974   
C111     C      0.501880000000     0.051670000000     0.388170000000     0.0143845  
C112     C      0.463660000000     0.051190000000     0.350440000000    -0.102739   
C113     C      0.697850000000     0.465210000000     0.568740000000     0.0165109  
C114     C      0.877080000000     0.551270000000     0.467030000000     0.0284194  
C115     C      0.876350000000     0.460180000000     0.468800000000     0.192595   
C116     C      0.836710000000     0.555030000000     0.502050000000    -0.110389   
C117     C      0.737450000000     0.461060000000     0.532870000000    -0.0975759  
C118     C      0.835690000000     0.459230000000     0.503920000000    -0.152887   
C119     C      0.764770000000     0.508550000000     0.526090000000     0.00996818 
C120     C      0.809170000000     0.507590000000     0.507970000000     0.0445164  
C121     C      0.697850000000     0.555740000000     0.565480000000     0.0168308  
C122     C      0.738110000000     0.556870000000     0.530010000000    -0.0981609  
C123     C      0.376960000000     0.551540000000     0.524700000000     0.0145678  
C124     C      0.197020000000     0.458470000000     0.507250000000     0.0254539  
C125     C      0.197380000000     0.552250000000     0.508600000000     0.190702   
C126     C      0.239420000000     0.458850000000     0.539940000000    -0.113213   
C127     C      0.334950000000     0.549880000000     0.491530000000    -0.10207    
C128     C      0.240060000000     0.549920000000     0.541060000000    -0.152394   
C129     C      0.307400000000     0.504290000000     0.502770000000     0.0239543  
C130     C      0.267440000000     0.504270000000     0.529290000000     0.045001   
C131     C      0.377700000000     0.457900000000     0.524640000000     0.0154608  
C132     C      0.335350000000     0.458860000000     0.491790000000    -0.104205   
C133     C      0.614180000000     0.460470000000     0.081170000000     0.0164822  
C134     C      0.789260000000     0.556160000000     0.978320000000     0.0280555  
C135     C      0.789500000000     0.465190000000     0.974390000000     0.19205    
C136     C      0.750340000000     0.556940000000     0.015350000000    -0.110187   
C137     C      0.653450000000     0.459370000000     0.044490000000    -0.0973768  
C138     C      0.750660000000     0.461200000000     0.011480000000    -0.153006   
C139     C      0.679990000000     0.507700000000     0.039750000000     0.00943906 
C140     C      0.723650000000     0.508700000000     0.019680000000     0.0440028  
C141     C      0.614060000000     0.550870000000     0.084750000000     0.0164378  
C142     C      0.653120000000     0.555270000000     0.048120000000    -0.0975391  
C143     C      0.103590000000     0.460660000000     0.059380000000     0.0167552  
C144     C      0.298370000000     0.555350000000     0.005300000000     0.0271979  
C145     C      0.298860000000     0.464140000000     0.001430000000     0.191576   
C146     C      0.252190000000     0.556040000000     0.032040000000    -0.110466   
C147     C      0.150440000000     0.459450000000     0.033880000000    -0.0984764  
C148     C      0.252970000000     0.460750000000     0.028690000000    -0.152965   
C149     C      0.177620000000     0.507480000000     0.036440000000     0.010195   
C150     C      0.224890000000     0.508180000000     0.028950000000     0.0446639  
C151     C      0.103150000000     0.551310000000     0.062430000000     0.0162411  
C152     C      0.149700000000     0.555050000000     0.036710000000    -0.0985755  
C153     C      0.020260000000     0.557490000000     0.662230000000     0.0141022  
C154     C      0.980460000000     0.463780000000     0.846830000000     0.0251712  
C155     C      0.976980000000     0.557270000000     0.848410000000     0.190316   
C156     C      0.017770000000     0.467060000000     0.808220000000    -0.113117   
C157     C      0.984790000000     0.557490000000     0.702860000000    -0.100602   
C158     C      0.014010000000     0.558120000000     0.809130000000    -0.152607   
C159     C      0.991860000000     0.512130000000     0.733100000000     0.0207947  
C160     C      0.009390000000     0.512560000000     0.778690000000     0.0454604  
C161     C      0.019920000000     0.464400000000     0.663600000000     0.0144326  
C162     C      0.984250000000     0.466120000000     0.703960000000    -0.102322   
C163     C      0.053300000000     0.460420000000     0.331000000000     0.0177197  
C164     C      0.915360000000     0.547280000000     0.175180000000     0.0283641  
C165     C      0.917960000000     0.456520000000     0.173980000000     0.191853   
C166     C      0.956620000000     0.551310000000     0.209050000000    -0.109158   
C167     C      0.010100000000     0.456360000000     0.299640000000    -0.0976505  
C168     C      0.959030000000     0.454940000000     0.208690000000    -0.151637   
C169     C      0.997260000000     0.504090000000     0.274060000000     0.00980076 
C170     C      0.969270000000     0.503380000000     0.234250000000     0.0436462  
C171     C      0.051530000000     0.550660000000     0.330590000000     0.0164468  
C172     C      0.008140000000     0.552500000000     0.299370000000    -0.0975385  
C173     C      0.056580000000     0.648750000000     0.537800000000    -0.00240614 
C174     C      0.006640000000     0.863760000000     0.469090000000     0.0116211  
C175     C      0.073970000000     0.861950000000     0.520700000000     0.18096    
C176     C      0.993630000000     0.810600000000     0.479830000000    -0.100723   
C177     C      0.069280000000     0.702350000000     0.529960000000    -0.086921   
C178     C      0.064710000000     0.809620000000     0.537540000000    -0.146299   
C179     C      0.031800000000     0.731240000000     0.503830000000     0.00630223 
C180     C      0.032090000000     0.781560000000     0.504420000000     0.0430182  
C181     C      0.994550000000     0.649070000000     0.481000000000    -0.000877573
C182     C      0.000010000000     0.703560000000     0.469550000000    -0.0878681  
C183     C      0.073020000000     0.149210000000     0.486630000000    -0.000803077
C184     C      0.995370000000     0.364390000000     0.520210000000     0.0129476  
C185     C      0.055650000000     0.361900000000     0.460080000000     0.177251   
C186     C      0.003710000000     0.311500000000     0.536090000000    -0.10071    
C187     C      0.066070000000     0.202200000000     0.470850000000    -0.087128   
C188     C      0.070100000000     0.309450000000     0.472520000000    -0.1488     
C189     C      0.034660000000     0.231610000000     0.504080000000     0.00558219 
C190     C      0.033900000000     0.281880000000     0.501790000000     0.0405893  
C191     C      0.010070000000     0.150420000000     0.542380000000    -1.05432e-05
C192     C      0.997930000000     0.204030000000     0.532720000000    -0.0879559  
C193     C      0.692630000000     0.961950000000     0.519610000000     0.0142306  
C194     C      0.872390000000     0.052590000000     0.473060000000     0.0257737  
C195     C      0.872350000000     0.960170000000     0.479360000000     0.190499   
C196     C      0.829070000000     0.054900000000     0.504420000000    -0.112783   
C197     C      0.726960000000     0.961430000000     0.478030000000    -0.0999664  
C198     C      0.828790000000     0.962970000000     0.510540000000    -0.152063   
C199     C      0.756300000000     0.007290000000     0.480750000000     0.0186782  
C200     C      0.800900000000     0.008380000000     0.497930000000     0.046655   
C201     C      0.691790000000     0.055180000000     0.515190000000     0.0146971  
C202     C      0.726420000000     0.052310000000     0.473940000000    -0.102231   
C203     C      0.192190000000     0.055440000000     0.526420000000     0.0145199  
C204     C      0.375990000000     0.960660000000     0.589420000000     0.0281544  
C205     C      0.378890000000     0.051610000000     0.599600000000     0.190808   
C206     C      0.330810000000     0.964010000000     0.561240000000    -0.112017   
C207     C      0.228560000000     0.059490000000     0.566150000000    -0.0989568  
C208     C      0.332400000000     0.057410000000     0.573600000000    -0.153201   
C209     C      0.256000000000     0.012100000000     0.571020000000     0.0114197  
C210     C      0.303670000000     0.010550000000     0.572630000000     0.0457558  
C211     C      0.191160000000     0.963750000000     0.535440000000     0.0144815  
C212     C      0.225030000000     0.967540000000     0.577050000000    -0.0986427  
C213     C      0.908520000000     0.649780000000     0.031150000000    -0.00136884 
C214     C      0.984940000000     0.864390000000     0.991300000000     0.0148454  
C215     C      0.931880000000     0.861260000000     0.058330000000     0.181445   
C216     C      0.974400000000     0.811620000000     0.976250000000    -0.101234   
C217     C      0.916560000000     0.702730000000     0.046410000000    -0.0870843  
C218     C      0.914240000000     0.810080000000     0.046130000000    -0.146138   
C219     C      0.945900000000     0.731900000000     0.011080000000     0.00584244 
C220     C      0.947160000000     0.782140000000     0.013280000000     0.0427726  
C221     C      0.968500000000     0.650230000000     0.972070000000    -0.000284872
C222     C      0.980550000000     0.704160000000     0.979980000000    -0.0875441  
C223     C      0.914440000000     0.365320000000     0.039330000000    -0.00244209 
C224     C      0.983590000000     0.149880000000     0.992480000000     0.0129408  
C225     C      0.902930000000     0.152260000000     0.016390000000     0.180347   
C226     C      0.992180000000     0.203260000000     0.006540000000    -0.101874   
C227     C      0.904800000000     0.311930000000     0.026780000000    -0.0872029  
C228     C      0.905940000000     0.204720000000     0.035040000000    -0.146277   
C229     C      0.948610000000     0.282810000000     0.015520000000     0.00545527 
C230     C      0.947910000000     0.232490000000     0.015800000000     0.0430927  
C231     C      0.991810000000     0.364570000000     0.008350000000    -0.00254481 
C232     C      0.990050000000     0.310360000000     0.994750000000    -0.0862707  
C233     C      0.606040000000     0.050930000000     0.015180000000     0.01404    
C234     C      0.786230000000     0.957880000000     0.004030000000     0.0248603  
C235     C      0.785960000000     0.052080000000     0.006520000000     0.190014   
C236     C      0.741750000000     0.960060000000     0.974480000000    -0.112624   
C237     C      0.653690000000     0.048920000000     0.038910000000    -0.101252   
C238     C      0.741340000000     0.050750000000     0.976930000000    -0.152333   
C239     C      0.678800000000     0.003760000000     0.021390000000     0.0228427  
C240     C      0.714870000000     0.004850000000     0.989530000000     0.0444089  
C241     C      0.605580000000     0.957690000000     0.012250000000     0.01522    
C242     C      0.653390000000     0.957610000000     0.035800000000    -0.103205   
C243     C      0.286560000000     0.051820000000     0.064790000000     0.0155706  
C244     C      0.106010000000     0.958140000000     0.041380000000     0.0251212  
C245     C      0.104840000000     0.052010000000     0.043870000000     0.18944    
C246     C      0.145750000000     0.959040000000     0.077480000000    -0.112289   
C247     C      0.242080000000     0.052760000000     0.035090000000    -0.102202   
C248     C      0.144700000000     0.049880000000     0.079920000000    -0.151855   
C249     C      0.214820000000     0.006360000000     0.044810000000     0.0235801  
C250     C      0.173740000000     0.005080000000     0.069480000000     0.0437716  
C251     C      0.286500000000     0.959140000000     0.060390000000     0.0156435  
C252     C      0.242080000000     0.961230000000     0.030700000000    -0.103575   
C253     C      0.974740000000     0.966160000000     0.854620000000     0.0142694  
C254     C      0.996950000000     0.057600000000     0.666530000000     0.025685   
C255     C      0.999390000000     0.964230000000     0.669990000000     0.190759   
C256     C      0.017560000000     0.059420000000     0.716820000000    -0.1136     
C257     C      0.953020000000     0.968740000000     0.804930000000    -0.100275   
C258     C      0.020270000000     0.968240000000     0.720100000000    -0.152067   
C259     C      0.970290000000     0.014430000000     0.780120000000     0.0204278  
C260     C      0.002400000000     0.014250000000     0.743940000000     0.0457082  
C261     C      0.975890000000     0.059450000000     0.856630000000     0.0136769  
C262     C      0.954790000000     0.059940000000     0.806510000000    -0.102212   
C263     C      0.057330000000     0.955790000000     0.341810000000     0.0163337  
C264     C      0.925130000000     0.051580000000     0.185260000000     0.0276982  
C265     C      0.923070000000     0.960750000000     0.183600000000     0.1915     
C266     C      0.967760000000     0.052850000000     0.217500000000    -0.109002   
C267     C      0.015820000000     0.954420000000     0.307810000000    -0.0967414  
C268     C      0.965330000000     0.956680000000     0.216510000000    -0.151178   
C269     C      0.005890000000     0.003050000000     0.282390000000     0.00954609 
C270     C      0.977990000000     0.004190000000     0.242540000000     0.0431776  
C271     C      0.061300000000     0.045930000000     0.340430000000     0.0179785  
C272     C      0.019400000000     0.050780000000     0.307540000000    -0.0981156  
Cu1      Cu     0.946080000000     0.059000000000     0.019850000000     1.20788    
Cu2      Cu     0.946190000000     0.955390000000     0.017850000000     1.20608    
Cu3      Cu     0.031380000000     0.058740000000     0.504020000000     1.20351    
Cu4      Cu     0.031760000000     0.955170000000     0.507480000000     1.20327    
Cu5      Cu     0.948790000000     0.559010000000     0.012170000000     1.19758    
Cu6      Cu     0.948280000000     0.455600000000     0.009330000000     1.19661    
Cu7      Cu     0.036710000000     0.558500000000     0.496690000000     1.20042    
Cu8      Cu     0.036380000000     0.455040000000     0.498210000000     1.21226    
Cu9      Cu     0.447310000000     0.058990000000     0.042310000000     1.21715    
Cu10     Cu     0.446520000000     0.955390000000     0.040480000000     1.20417    
Cu11     Cu     0.533520000000     0.059690000000     0.550070000000     1.21624    
Cu12     Cu     0.534440000000     0.956080000000     0.551890000000     1.20574    
Cu13     Cu     0.455550000000     0.558940000000     0.047330000000     1.20424    
Cu14     Cu     0.454820000000     0.455400000000     0.045700000000     1.20345    
Cu15     Cu     0.537140000000     0.559450000000     0.537830000000     1.20202    
Cu16     Cu     0.538410000000     0.455890000000     0.539480000000     1.20775    
H1       H      0.489420000000     0.591160000000     0.763800000000     0.0507449  
H2       H      0.454500000000     0.455060000000     0.866380000000     0.0328411  
H3       H      0.556870000000     0.456780000000     0.719670000000     0.0284241  
H4       H      0.485960000000     0.430450000000     0.764390000000     0.0443003  
H5       H      0.527550000000     0.430050000000     0.824800000000     0.0461284  
H6       H      0.525880000000     0.590370000000     0.827310000000     0.0642707  
H7       H      0.516010000000     0.588480000000     0.680160000000     0.0330278  
H8       H      0.495990000000     0.429960000000     0.907080000000     0.0333395  
H9       H      0.451250000000     0.467770000000     0.728210000000     0.0530864  
H10      H      0.559620000000     0.553140000000     0.864310000000     0.0603652  
H11      H      0.513770000000     0.431100000000     0.681110000000     0.0353017  
H12      H      0.452720000000     0.555220000000     0.728300000000     0.0549875  
H13      H      0.560340000000     0.466760000000     0.863310000000     0.0532216  
H14      H      0.496880000000     0.586520000000     0.910200000000    -0.00111927 
H15      H      0.558610000000     0.562000000000     0.718780000000     0.0279019  
H16      H      0.423220000000     0.574200000000     0.891060000000     0.147929   
H17      H      0.524830000000     0.427150000000     0.313650000000     0.0421354  
H18      H      0.395280000000     0.549780000000     0.233210000000     0.0366247  
H19      H      0.590570000000     0.549270000000     0.350220000000     0.0256127  
H20      H      0.525380000000     0.582610000000     0.312670000000     0.042524   
H21      H      0.460110000000     0.582500000000     0.271620000000     0.0475786  
H22      H      0.460490000000     0.426970000000     0.271570000000     0.0680884  
H23      H      0.558290000000     0.426730000000     0.396070000000     0.0325767  
H24      H      0.427000000000     0.583500000000     0.189460000000     0.0338459  
H25      H      0.485890000000     0.564450000000     0.359180000000     0.0534017  
H26      H      0.500490000000     0.445810000000     0.226050000000     0.0607933  
H27      H      0.559810000000     0.583820000000     0.394360000000     0.0349086  
H28      H      0.485150000000     0.446130000000     0.359650000000     0.0533119  
H29      H      0.500110000000     0.563980000000     0.225690000000     0.0533882  
H30      H      0.430260000000     0.426150000000     0.187730000000    -0.00325282 
H31      H      0.590050000000     0.459600000000     0.351480000000     0.0256399  
H32      H      0.361420000000     0.452410000000     0.212800000000     0.144761   
H33      H      0.605110000000     0.722180000000     0.512440000000     0.0391224  
H34      H      0.468890000000     0.866250000000     0.545450000000     0.0403778  
H35      H      0.537690000000     0.644880000000     0.608720000000     0.0294389  
H36      H      0.492740000000     0.716810000000     0.607780000000     0.0390309  
H37      H      0.471450000000     0.791920000000     0.587190000000     0.0442152  
H38      H      0.583150000000     0.796120000000     0.487880000000     0.0568917  
H39      H      0.593170000000     0.632840000000     0.493280000000     0.028081   
H40      H      0.484850000000     0.881950000000     0.605170000000     0.0253776  
H41      H      0.467880000000     0.704560000000     0.550000000000     0.0483717  
H42      H      0.605080000000     0.814360000000     0.545180000000     0.058793   
H43      H      0.481080000000     0.627930000000     0.587910000000     0.0297081  
H44      H      0.555450000000     0.708440000000     0.475740000000     0.0481016  
H45      H      0.522980000000     0.807220000000     0.620110000000     0.0478109  
H46      H      0.587320000000     0.886240000000     0.499280000000    -0.00909455 
H47      H      0.601230000000     0.647610000000     0.555060000000     0.0283951  
H48      H      0.539140000000     0.859470000000     0.445250000000     0.136892   
H49      H      0.568780000000     0.292450000000     0.472880000000     0.0392179  
H50      H      0.541490000000     0.152710000000     0.615830000000     0.0407625  
H51      H      0.470710000000     0.367580000000     0.532590000000     0.0285589  
H52      H      0.470360000000     0.297310000000     0.582350000000     0.0390713  
H53      H      0.496120000000     0.224650000000     0.611510000000     0.043868   
H54      H      0.594370000000     0.219890000000     0.498590000000     0.0563491  
H55      H      0.587110000000     0.382490000000     0.486140000000     0.0281189  
H56      H      0.483770000000     0.133450000000     0.602750000000     0.0260233  
H57      H      0.523970000000     0.313360000000     0.611490000000     0.0479773  
H58      H      0.539740000000     0.200370000000     0.474600000000     0.0581096  
H59      H      0.484690000000     0.387520000000     0.591750000000     0.0296523  
H60      H      0.602450000000     0.307680000000     0.524990000000     0.0476731  
H61      H      0.465270000000     0.205340000000     0.558970000000     0.048686   
H62      H      0.582770000000     0.128900000000     0.493550000000    -0.00968459 
H63      H      0.528180000000     0.367100000000     0.472240000000     0.0269515  
H64      H      0.636440000000     0.158950000000     0.542110000000     0.137253   
H65      H      0.506130000000     0.796900000000     0.095040000000     0.039519   
H66      H      0.389810000000     0.649120000000     0.023850000000     0.0358322  
H67      H      0.473540000000     0.870550000000     0.974350000000     0.0257813  
H68      H      0.440050000000     0.793180000000     0.963380000000     0.0394176  
H69      H      0.410680000000     0.718480000000     0.978950000000     0.0445074  
H70      H      0.472600000000     0.725030000000     0.117190000000     0.0660916  
H71      H      0.489460000000     0.886270000000     0.101450000000     0.0301714  
H72      H      0.426130000000     0.627520000000     0.976920000000     0.0255741  
H73      H      0.392690000000     0.804540000000     0.003720000000     0.0478103  
H74      H      0.515180000000     0.702160000000     0.076060000000     0.0580916  
H75      H      0.412360000000     0.881910000000     0.974900000000     0.0293139  
H76      H      0.446840000000     0.811710000000     0.109710000000     0.0514087  
H77      H      0.470320000000     0.700510000000     0.972760000000     0.0491802  
H78      H      0.479580000000     0.634250000000     0.116350000000    -0.0100154  
H79      H      0.516000000000     0.867840000000     0.046680000000     0.029317   
H80      H      0.400370000000     0.624310000000     0.113920000000     0.150706   
H81      H      0.404890000000     0.294530000000     0.105460000000     0.0398086  
H82      H      0.452510000000     0.150850000000     0.973410000000     0.0425467  
H83      H      0.517750000000     0.364520000000     0.067120000000     0.0264807  
H84      H      0.523860000000     0.292540000000     0.020100000000     0.0394283  
H85      H      0.499640000000     0.220890000000     0.985160000000     0.0436949  
H86      H      0.380680000000     0.223020000000     0.073010000000     0.057258   
H87      H      0.395780000000     0.385470000000     0.090190000000     0.0278182  
H88      H      0.506220000000     0.129710000000     0.997260000000     0.0254445  
H89      H      0.478520000000     0.310800000000     0.979640000000     0.048522   
H90      H      0.427430000000     0.203340000000     0.110610000000     0.0580474  
H91      H      0.515500000000     0.383700000000     0.006020000000     0.0287084  
H92      H      0.383860000000     0.311830000000     0.047330000000     0.0487423  
H93      H      0.519120000000     0.201580000000     0.043200000000     0.0485049  
H94      H      0.389550000000     0.131320000000     0.086120000000    -0.00929149 
H95      H      0.450090000000     0.365960000000     0.114920000000     0.0279362  
H96      H      0.345670000000     0.157900000000     0.027210000000     0.138187   
H97      H      0.530530000000     0.090220000000     0.775320000000     0.0417443  
H98      H      0.399060000000     0.967060000000     0.851660000000     0.0409288  
H99      H      0.595770000000     0.969110000000     0.737790000000     0.0255802  
H100     H      0.531100000000     0.935310000000     0.775820000000     0.0414615  
H101     H      0.465600000000     0.934570000000     0.816130000000     0.0459388  
H102     H      0.466140000000     0.090800000000     0.816970000000     0.0606645  
H103     H      0.562720000000     0.091160000000     0.691960000000     0.0371791  
H104     H      0.429270000000     0.933420000000     0.896560000000     0.0310412  
H105     H      0.491220000000     0.952820000000     0.729380000000     0.0524717  
H106     H      0.503980000000     0.070490000000     0.863730000000     0.0601063  
H107     H      0.565140000000     0.934200000000     0.693830000000     0.0350023  
H108     H      0.490220000000     0.072240000000     0.729490000000     0.0505374  
H109     H      0.503710000000     0.953970000000     0.863360000000     0.0518244  
H110     H      0.431930000000     0.090450000000     0.899540000000     0.002028   
H111     H      0.595130000000     0.058400000000     0.736160000000     0.0267379  
H112     H      0.383890000000     0.094430000000     0.840630000000     0.141595   
H113     H      0.459680000000     0.925360000000     0.331280000000     0.0510393  
H114     H      0.427520000000     0.059480000000     0.223860000000     0.0330523  
H115     H      0.535840000000     0.056820000000     0.370150000000     0.027259   
H116     H      0.463200000000     0.085900000000     0.330400000000     0.043493   
H117     H      0.499710000000     0.084770000000     0.267030000000     0.0454485  
H118     H      0.492800000000     0.923920000000     0.266070000000     0.0647448  
H119     H      0.490140000000     0.927430000000     0.413710000000     0.0455114  
H120     H      0.470140000000     0.085160000000     0.184740000000     0.033958   
H121     H      0.429590000000     0.050100000000     0.368910000000     0.0526531  
H122     H      0.529770000000     0.959010000000     0.230290000000     0.0593243  
H123     H      0.496250000000     0.083930000000     0.411580000000     0.0357594  
H124     H      0.426970000000     0.963300000000     0.368700000000     0.0556717  
H125     H      0.533140000000     0.046810000000     0.230250000000     0.0522857  
H126     H      0.466890000000     0.927910000000     0.182560000000    -0.00174927 
H127     H      0.532580000000     0.949490000000     0.372290000000     0.0285064  
H128     H      0.393380000000     0.946120000000     0.198400000000     0.149546   
H129     H      0.759780000000     0.431190000000     0.546600000000     0.0426938  
H130     H      0.862830000000     0.551430000000     0.430200000000     0.0351231  
H131     H      0.712390000000     0.557510000000     0.602170000000     0.0259845  
H132     H      0.760840000000     0.587060000000     0.542300000000     0.0417089  
H133     H      0.814630000000     0.585020000000     0.488150000000     0.0459172  
H134     H      0.812850000000     0.429020000000     0.491830000000     0.0691553  
H135     H      0.676130000000     0.431720000000     0.566620000000     0.0363942  
H136     H      0.899060000000     0.584430000000     0.470620000000     0.0299392  
H137     H      0.724460000000     0.566400000000     0.494160000000     0.0513437  
H138     H      0.849090000000     0.449690000000     0.539890000000     0.0601821  
H139     H      0.676200000000     0.588910000000     0.560240000000     0.0329709  
H140     H      0.723150000000     0.449730000000     0.497790000000     0.0539394  
H141     H      0.850320000000     0.566050000000     0.537510000000     0.0519696  
H142     H      0.897650000000     0.427000000000     0.476050000000     0.000621713
H143     H      0.713000000000     0.466530000000     0.605200000000     0.0265605  
H144     H      0.886250000000     0.451230000000     0.401130000000     0.150716   
H145     H      0.315480000000     0.584570000000     0.493220000000     0.0527304  
H146     H      0.208720000000     0.452490000000     0.469930000000     0.0334355  
H147     H      0.365900000000     0.450980000000     0.561760000000     0.0266896  
H148     H      0.316350000000     0.423950000000     0.494080000000     0.0440423  
H149     H      0.258280000000     0.423900000000     0.537170000000     0.0452965  
H150     H      0.259660000000     0.584560000000     0.539660000000     0.0647184  
H151     H      0.398670000000     0.583380000000     0.514290000000     0.0366608  
H152     H      0.175040000000     0.426710000000     0.517270000000     0.0333086  
H153     H      0.347630000000     0.460720000000     0.454260000000     0.0543037  
H154     H      0.228000000000     0.547460000000     0.578640000000     0.0591785  
H155     H      0.399880000000     0.426540000000     0.513960000000     0.0334128  
H156     H      0.347540000000     0.547780000000     0.454120000000     0.0568778  
H157     H      0.227290000000     0.460340000000     0.577540000000     0.0517453  
H158     H      0.175830000000     0.583350000000     0.521660000000    -0.00128068 
H159     H      0.364790000000     0.558070000000     0.561760000000     0.0276824  
H160     H      0.183510000000     0.571540000000     0.443750000000     0.151519   
H161     H      0.676620000000     0.429250000000     0.056080000000     0.042164   
H162     H      0.773400000000     0.558510000000     0.942260000000     0.0348185  
H163     H      0.629860000000     0.549330000000     0.120900000000     0.0251508  
H164     H      0.676080000000     0.584640000000     0.061800000000     0.0415134  
H165     H      0.727240000000     0.587370000000     0.004440000000     0.045543   
H166     H      0.727720000000     0.431290000000     0.998900000000     0.0687071  
H167     H      0.592460000000     0.427210000000     0.076800000000     0.0327093  
H168     H      0.811060000000     0.589310000000     0.982980000000     0.0305778  
H169     H      0.638210000000     0.567420000000     0.013570000000     0.0517065  
H170     H      0.766000000000     0.449800000000     0.046080000000     0.0603468  
H171     H      0.592220000000     0.584310000000     0.083270000000     0.0346852  
H172     H      0.638770000000     0.449810000000     0.009070000000     0.0526258  
H173     H      0.765370000000     0.565890000000     0.050770000000     0.0517536  
H174     H      0.811450000000     0.431880000000     0.978130000000    -0.000575356
H175     H      0.629790000000     0.458940000000     0.117410000000     0.0251561  
H176     H      0.795940000000     0.461320000000     0.905830000000     0.147596   
H177     H      0.169710000000     0.429040000000     0.050950000000     0.0422105  
H178     H      0.291140000000     0.558620000000     0.966480000000     0.0348007  
H179     H      0.109810000000     0.550550000000     0.101490000000     0.0260518  
H180     H      0.168540000000     0.584800000000     0.055330000000     0.0427296  
H181     H      0.232690000000     0.587050000000     0.016350000000     0.0465743  
H182     H      0.233700000000     0.430210000000     0.011840000000     0.0682341  
H183     H      0.083560000000     0.427580000000     0.049100000000     0.032264   
H184     H      0.318610000000     0.588190000000     0.015810000000     0.0320055  
H185     H      0.143580000000     0.566440000000     0.999210000000     0.0520119  
H186     H      0.260300000000     0.450460000000     0.066270000000     0.0601837  
H187     H      0.082680000000     0.584840000000     0.054810000000     0.0363492  
H188     H      0.144790000000     0.450170000000     0.995750000000     0.0532839  
H189     H      0.258820000000     0.564230000000     0.070240000000     0.0529797  
H190     H      0.319130000000     0.430780000000     0.010760000000     2.64371e-06
H191     H      0.109890000000     0.458530000000     0.098460000000     0.0248823  
H192     H      0.319940000000     0.458540000000     0.936160000000     0.148524   
H193     H      0.986510000000     0.592690000000     0.721870000000     0.0487102  
H194     H      0.946500000000     0.456530000000     0.829510000000     0.0338104  
H195     H      0.054890000000     0.459020000000     0.679360000000     0.027628   
H196     H      0.984730000000     0.431480000000     0.724080000000     0.0437289  
H197     H      0.019820000000     0.432450000000     0.788140000000     0.0459025  
H198     H      0.012670000000     0.593260000000     0.789930000000     0.0644376  
H199     H      0.012810000000     0.589240000000     0.638730000000     0.0336619  
H200     H      0.988490000000     0.431850000000     0.869920000000     0.034255   
H201     H      0.949090000000     0.467660000000     0.687850000000     0.0525669  
H202     H      0.048700000000     0.557850000000     0.826370000000     0.0593161  
H203     H      0.012330000000     0.431970000000     0.641010000000     0.0344849  
H204     H      0.949460000000     0.556300000000     0.687120000000     0.0548452  
H205     H      0.052070000000     0.470300000000     0.826000000000     0.0524653  
H206     H      0.984850000000     0.588520000000     0.872630000000    -0.00370129 
H207     H      0.055350000000     0.563130000000     0.677630000000     0.0269595  
H208     H      0.911710000000     0.572420000000     0.854160000000     0.148685   
H209     H      0.017590000000     0.426560000000     0.273920000000     0.0425549  
H210     H      0.883120000000     0.545890000000     0.196840000000     0.0353322  
H211     H      0.082430000000     0.550760000000     0.306880000000     0.0267491  
H212     H      0.014290000000     0.582500000000     0.273490000000     0.0427271  
H213     H      0.947190000000     0.580120000000     0.235210000000     0.0468751  
H214     H      0.951290000000     0.425360000000     0.234640000000     0.0694361  
H215     H      0.056400000000     0.427340000000     0.353650000000     0.0362321  
H216     H      0.913370000000     0.580810000000     0.152870000000     0.0319511  
H217     H      0.977960000000     0.562530000000     0.321940000000     0.0528365  
H218     H      0.990570000000     0.444290000000     0.188460000000     0.0608416  
H219     H      0.053210000000     0.584210000000     0.352900000000     0.0366961  
H220     H      0.980320000000     0.445020000000     0.322180000000     0.0568132  
H221     H      0.987280000000     0.563960000000     0.188490000000     0.0538317  
H222     H      0.920550000000     0.423700000000     0.150600000000    -0.00267132 
H223     H      0.084230000000     0.461470000000     0.307350000000     0.0252165  
H224     H      0.851410000000     0.448450000000     0.176280000000     0.144608   
H225     H      0.075830000000     0.717910000000     0.565900000000     0.0399397  
H226     H      0.028820000000     0.865650000000     0.436740000000     0.0384046  
H227     H      0.969080000000     0.643860000000     0.510360000000     0.0270276  
H228     H      0.964510000000     0.719180000000     0.469980000000     0.039591   
H229     H      0.984070000000     0.794140000000     0.445030000000     0.0446081  
H230     H      0.099050000000     0.791600000000     0.540440000000     0.0661188  
H231     H      0.088000000000     0.628620000000     0.549380000000     0.0295387  
H232     H      0.974470000000     0.884200000000     0.460880000000     0.0268186  
H233     H      0.014290000000     0.707290000000     0.432930000000     0.0486305  
H234     H      0.048940000000     0.810730000000     0.573670000000     0.0591265  
H235     H      0.980720000000     0.630400000000     0.448870000000     0.0291364  
H236     H      0.101840000000     0.704290000000     0.508890000000     0.051387   
H237     H      0.962570000000     0.810150000000     0.503230000000     0.0492444  
H238     H      0.091570000000     0.881560000000     0.550340000000    -0.00982169 
H239     H      0.030430000000     0.645680000000     0.566810000000     0.029472   
H240     H      0.113450000000     0.894700000000     0.474350000000     0.151197   
H241     H      0.101190000000     0.218640000000     0.468910000000     0.0389193  
H242     H      0.967900000000     0.365710000000     0.492450000000     0.0424991  
H243     H      0.035320000000     0.147700000000     0.572260000000     0.0267938  
H244     H      0.992560000000     0.221260000000     0.568140000000     0.0391773  
H245     H      0.968920000000     0.294740000000     0.540190000000     0.04383    
H246     H      0.077520000000     0.290660000000     0.438280000000     0.0563593  
H247     H      0.088510000000     0.128300000000     0.456700000000     0.0283623  
H248     H      0.982520000000     0.385710000000     0.551170000000     0.0247603  
H249     H      0.964740000000     0.205510000000     0.512690000000     0.0480317  
H250     H      0.102770000000     0.310730000000     0.493450000000     0.0582836  
H251     H      0.978060000000     0.130950000000     0.553390000000     0.0286216  
H252     H      0.050620000000     0.202430000000     0.434550000000     0.0477632  
H253     H      0.020890000000     0.311850000000     0.571540000000     0.0481231  
H254     H      0.086840000000     0.382040000000     0.447450000000    -0.00868831 
H255     H      0.097640000000     0.147590000000     0.517130000000     0.0283958  
H256     H      0.037520000000     0.352850000000     0.393940000000     0.13692    
H257     H      0.746060000000     0.926540000000     0.476940000000     0.0481749  
H258     H      0.861460000000     0.053520000000     0.435060000000     0.0353761  
H259     H      0.710930000000     0.063230000000     0.548680000000     0.0301764  
H260     H      0.744980000000     0.087300000000     0.470170000000     0.04321    
H261     H      0.810920000000     0.089430000000     0.496840000000     0.046319   
H262     H      0.810180000000     0.927870000000     0.508410000000     0.0652408  
H263     H      0.669710000000     0.929480000000     0.516240000000     0.0351894  
H264     H      0.893520000000     0.085870000000     0.479730000000     0.0344735  
H265     H      0.706670000000     0.048530000000     0.440100000000     0.0519035  
H266     H      0.839750000000     0.966070000000     0.548420000000     0.0612095  
H267     H      0.668180000000     0.086370000000     0.508150000000     0.0356155  
H268     H      0.706930000000     0.961860000000     0.444170000000     0.0536416  
H269     H      0.840020000000     0.057390000000     0.542330000000     0.0533209  
H270     H      0.893090000000     0.928600000000     0.492650000000    -0.00130954 
H271     H      0.712240000000     0.957970000000     0.553510000000     0.0287012  
H272     H      0.888090000000     0.942760000000     0.414540000000     0.147373   
H273     H      0.249910000000     0.091690000000     0.556830000000     0.0425331  
H274     H      0.367430000000     0.954630000000     0.627620000000     0.0349555  
H275     H      0.211080000000     0.956690000000     0.502210000000     0.02849    
H276     H      0.242770000000     0.932180000000     0.581290000000     0.0439433  
H277     H      0.312150000000     0.929610000000     0.568030000000     0.047217   
H278     H      0.314190000000     0.087420000000     0.592500000000     0.0686025  
H279     H      0.169990000000     0.088630000000     0.527520000000     0.0334515  
H280     H      0.395610000000     0.928150000000     0.576850000000     0.0321625  
H281     H      0.204750000000     0.972370000000     0.610420000000     0.0533956  
H282     H      0.338860000000     0.069210000000     0.536280000000     0.0606551  
H283     H      0.168220000000     0.931760000000     0.541680000000     0.0358499  
H284     H      0.211010000000     0.067390000000     0.600550000000     0.0520034  
H285     H      0.339200000000     0.964440000000     0.522580000000     0.0551995  
H286     H      0.399650000000     0.084930000000     0.591350000000    -0.00121023 
H287     H      0.210470000000     0.055560000000     0.491520000000     0.026543   
H288     H      0.401470000000     0.053720000000     0.664560000000     0.146497   
H289     H      0.881720000000     0.719420000000     0.050610000000     0.0396563  
H290     H      0.015530000000     0.865360000000     0.015370000000     0.0360086  
H291     H      0.941950000000     0.646560000000     0.943490000000     0.0278252  
H292     H      0.982990000000     0.720890000000     0.944000000000     0.0398854  
H293     H      0.008440000000     0.794490000000     0.968570000000     0.0443777  
H294     H      0.909060000000     0.790830000000     0.080570000000     0.0663481  
H295     H      0.894270000000     0.629090000000     0.061860000000     0.0291578  
H296     H      0.994200000000     0.885780000000     0.959080000000     0.0250684  
H297     H      0.015150000000     0.706400000000     0.997240000000     0.0481635  
H298     H      0.880050000000     0.813180000000     0.028150000000     0.0587749  
H299     H      0.000250000000     0.631020000000     0.959920000000     0.02919    
H300     H      0.934260000000     0.702930000000     0.081600000000     0.0500719  
H301     H      0.953960000000     0.812340000000     0.942690000000     0.0485542  
H302     H      0.903180000000     0.881320000000     0.076130000000    -0.00745904 
H303     H      0.882470000000     0.648240000000     0.001930000000     0.0287024  
H304     H      0.978720000000     0.891110000000     0.098930000000     0.150119   
H305     H      0.886270000000     0.296190000000     0.057890000000     0.0405934  
H306     H      0.973940000000     0.147500000000     0.954180000000     0.0374595  
H307     H      0.005700000000     0.368900000000     0.045130000000     0.0278445  
H308     H      0.023190000000     0.294270000000     0.007280000000     0.0389407  
H309     H      0.012700000000     0.219420000000     0.977030000000     0.0449523  
H310     H      0.872900000000     0.222790000000     0.025000000000     0.0667151  
H311     H      0.881210000000     0.385720000000     0.039100000000     0.0295065  
H312     H      0.016440000000     0.129380000000     0.996810000000     0.0251373  
H313     H      0.988630000000     0.307290000000     0.955270000000     0.048214   
H314     H      0.908190000000     0.203960000000     0.074590000000     0.0591683  
H315     H      0.015910000000     0.383460000000     0.983610000000     0.0297755  
H316     H      0.881490000000     0.310570000000     0.995270000000     0.0513885  
H317     H      0.013600000000     0.204090000000     0.039460000000     0.0489489  
H318     H      0.876250000000     0.133010000000     0.037960000000    -0.00948544 
H319     H      0.929080000000     0.367840000000     0.075950000000     0.0308398  
H320     H      0.882370000000     0.118770000000     0.958940000000     0.150795   
H321     H      0.672060000000     0.083890000000     0.033720000000     0.0522976  
H322     H      0.777140000000     0.948940000000     0.041560000000     0.0327801  
H323     H      0.610060000000     0.953210000000     0.973120000000     0.0266056  
H324     H      0.671410000000     0.922970000000     0.028010000000     0.0432393  
H325     H      0.722730000000     0.925130000000     0.976600000000     0.0450013  
H326     H      0.721760000000     0.085250000000     0.980460000000     0.0649991  
H327     H      0.586820000000     0.082590000000     0.030230000000     0.034689   
H328     H      0.807740000000     0.927270000000     0.990230000000     0.0338554  
H329     H      0.648640000000     0.957720000000     0.075140000000     0.052723   
H330     H      0.750990000000     0.049390000000     0.938570000000     0.0593549  
H331     H      0.586080000000     0.925360000000     0.025410000000     0.0330347  
H332     H      0.648730000000     0.045940000000     0.078110000000     0.0561861  
H333     H      0.751370000000     0.963520000000     0.936230000000     0.051254   
H334     H      0.806960000000     0.083080000000     0.992410000000    -0.00121119 
H335     H      0.610730000000     0.057880000000     0.976420000000     0.026599   
H336     H      0.803820000000     0.071550000000     0.070350000000     0.151062   
H337     H      0.223580000000     0.087400000000     0.041440000000     0.0509837  
H338     H      0.120640000000     0.952490000000     0.005130000000     0.0326846  
H339     H      0.277020000000     0.952750000000     0.098300000000     0.0283433  
H340     H      0.223450000000     0.926150000000     0.033430000000     0.0450082  
H341     H      0.165460000000     0.924500000000     0.076410000000     0.046251   
H342     H      0.163550000000     0.084960000000     0.080980000000     0.0634392  
H343     H      0.307330000000     0.084700000000     0.055870000000     0.0367127  
H344     H      0.083700000000     0.926060000000     0.049490000000     0.033204   
H345     H      0.251790000000     0.964370000000     0.992460000000     0.0567554  
H346     H      0.129640000000     0.046330000000     0.116250000000     0.05832    
H347     H      0.307220000000     0.927200000000     0.048320000000     0.0381006  
H348     H      0.251690000000     0.053610000000     0.996720000000     0.0609592  
H349     H      0.130620000000     0.960000000000     0.113930000000     0.0517132  
H350     H      0.081800000000     0.082480000000     0.055560000000    -0.00191132 
H351     H      0.277120000000     0.054410000000     0.103140000000     0.0268808  
H352     H      0.095990000000     0.072470000000     0.978420000000     0.14778    
H353     H      0.958520000000     0.934140000000     0.785510000000     0.051386   
H354     H      0.958790000000     0.062500000000     0.669150000000     0.0320248  
H355     H      0.013920000000     0.065120000000     0.853560000000     0.0280175  
H356     H      0.962750000000     0.095060000000     0.789090000000     0.0441661  
H357     H      0.008940000000     0.094770000000     0.733440000000     0.0458086  
H358     H      0.015070000000     0.933970000000     0.740190000000     0.0643253  
H359     H      0.959930000000     0.934010000000     0.873490000000     0.035116   
H360     H      0.010780000000     0.089170000000     0.646050000000     0.0306112  
H361     H      0.916420000000     0.059310000000     0.809890000000     0.0529215  
H362     H      0.058530000000     0.971270000000     0.716480000000     0.0602406  
H363     H      0.961600000000     0.091060000000     0.876740000000     0.0369125  
H364     H      0.914790000000     0.971350000000     0.809090000000     0.0551045  
H365     H      0.055960000000     0.059290000000     0.713840000000     0.0523453  
H366     H      0.016580000000     0.932460000000     0.652440000000    -0.000184789
H367     H      0.012600000000     0.959770000000     0.850810000000     0.0281422  
H368     H      0.941110000000     0.944750000000     0.641660000000     0.14903    
H369     H      0.023520000000     0.924950000000     0.281770000000     0.043537   
H370     H      0.893680000000     0.052020000000     0.208150000000     0.0365739  
H371     H      0.092970000000     0.043210000000     0.317970000000     0.0243221  
H372     H      0.028660000000     0.079670000000     0.281420000000     0.0419237  
H373     H      0.961150000000     0.082530000000     0.243630000000     0.0467536  
H374     H      0.957490000000     0.926720000000     0.241980000000     0.0702084  
H375     H      0.056780000000     0.922800000000     0.364940000000     0.035982   
H376     H      0.924230000000     0.085320000000     0.163190000000     0.0335771  
H377     H      0.989290000000     0.063620000000     0.328820000000     0.0542126  
H378     H      0.995720000000     0.945360000000     0.194830000000     0.0612399  
H379     H      0.064660000000     0.079500000000     0.362530000000     0.0338437  
H380     H      0.984470000000     0.943870000000     0.328380000000     0.0530162  
H381     H      0.998450000000     0.063050000000     0.195740000000     0.052392   
H382     H      0.923060000000     0.927990000000     0.160000000000     0.000468312
H383     H      0.089590000000     0.954260000000     0.320160000000     0.026625   
H384     H      0.856360000000     0.956350000000     0.188740000000     0.147646   
N1       N      0.485700000000     0.508260000000     0.911150000000    -0.208473   
N2       N      0.522760000000     0.509670000000     0.676880000000    -0.189662   
N3       N      0.430610000000     0.504930000000     0.183640000000    -0.209707   
N4       N      0.555630000000     0.505370000000     0.400560000000    -0.18882    
N5       N      0.539140000000     0.887310000000     0.555450000000    -0.251638   
N6       N      0.532690000000     0.628160000000     0.534860000000    -0.234123   
N7       N      0.529830000000     0.128230000000     0.544710000000    -0.25313    
N8       N      0.541180000000     0.387280000000     0.544120000000    -0.235345   
N9       N      0.457840000000     0.627800000000     0.044690000000    -0.258235   
N10      N      0.444390000000     0.886440000000     0.042090000000    -0.233787   
N11      N      0.450630000000     0.127690000000     0.045990000000    -0.252453   
N12      N      0.451550000000     0.386800000000     0.041940000000    -0.235581   
N13      N      0.432080000000     0.012040000000     0.902780000000    -0.202146   
N14      N      0.560120000000     0.012550000000     0.687570000000    -0.187532   
N15      N      0.460420000000     0.006750000000     0.179870000000    -0.208733   
N16      N      0.503060000000     0.005130000000     0.415380000000    -0.186835   
N17      N      0.902890000000     0.505690000000     0.474720000000    -0.208877   
N18      N      0.671480000000     0.510220000000     0.560350000000    -0.188209   
N19      N      0.171290000000     0.505400000000     0.509660000000    -0.207816   
N20      N      0.403280000000     0.504950000000     0.523420000000    -0.188708   
N21      N      0.815880000000     0.510570000000     0.982020000000    -0.208697   
N22      N      0.587590000000     0.505890000000     0.076550000000    -0.187866   
N23      N      0.323490000000     0.509490000000     0.013990000000    -0.209107   
N24      N      0.078850000000     0.506270000000     0.048900000000    -0.188476   
N25      N      0.977160000000     0.509920000000     0.874410000000    -0.207264   
N26      N      0.019830000000     0.510520000000     0.635870000000    -0.188508   
N27      N      0.919430000000     0.502460000000     0.146800000000    -0.20933    
N28      N      0.051330000000     0.505630000000     0.358890000000    -0.187091   
N29      N      0.029840000000     0.886190000000     0.510060000000    -0.25617    
N30      N      0.039110000000     0.627310000000     0.493610000000    -0.233808   
N31      N      0.038330000000     0.386450000000     0.502840000000    -0.253105   
N32      N      0.028600000000     0.127360000000     0.499460000000    -0.23485    
N33      N      0.898270000000     0.006840000000     0.481970000000    -0.208738   
N34      N      0.666280000000     0.008500000000     0.521020000000    -0.187805   
N35      N      0.402490000000     0.006320000000     0.584630000000    -0.208501   
N36      N      0.165070000000     0.009830000000     0.530110000000    -0.188754   
N37      N      0.944580000000     0.886630000000     0.014180000000    -0.258301   
N38      N      0.952210000000     0.627680000000     0.016210000000    -0.234328   
N39      N      0.947800000000     0.127930000000     0.022640000000    -0.257091   
N40      N      0.945990000000     0.386920000000     0.004470000000    -0.233465   
N41      N      0.811730000000     0.005070000000     0.003280000000    -0.208015   
N42      N      0.580740000000     0.004190000000     0.021420000000    -0.189583   
N43      N      0.079540000000     0.004670000000     0.041810000000    -0.208109   
N44      N      0.312360000000     0.005780000000     0.056850000000    -0.18711    
N45      N      0.006610000000     0.010210000000     0.642820000000    -0.207438   
N46      N      0.967380000000     0.012320000000     0.881270000000    -0.188418   
N47      N      0.925680000000     0.006750000000     0.156580000000    -0.209503   
N48      N      0.056680000000     0.001450000000     0.369090000000    -0.189356   
O1       O      0.936160000000     0.048380000000     0.086840000000    -0.48555    
O2       O      0.955600000000     0.051130000000     0.952390000000    -0.492498   
O3       O      0.880640000000     0.045370000000     0.011280000000    -0.495008   
O4       O      0.010870000000     0.044580000000     0.030940000000    -0.491732   
O5       O      0.011320000000     0.964030000000     0.029750000000    -0.49196    
O6       O      0.880840000000     0.964870000000     0.009110000000    -0.487791   
O7       O      0.956030000000     0.970600000000     0.950990000000    -0.48565    
O8       O      0.935580000000     0.967790000000     0.085230000000    -0.489826   
O9       O      0.020020000000     0.048190000000     0.571470000000    -0.486712   
O10      O      0.044010000000     0.043760000000     0.437940000000    -0.485809   
O11      O      0.966560000000     0.047780000000     0.492050000000    -0.487571   
O12      O      0.096640000000     0.049670000000     0.516630000000    -0.486492   
O13      O      0.096500000000     0.969190000000     0.520420000000    -0.489052   
O14      O      0.966690000000     0.967490000000     0.496180000000    -0.490405   
O15      O      0.044010000000     0.963180000000     0.440260000000    -0.489213   
O16      O      0.020160000000     0.967580000000     0.574070000000    -0.484587   
O17      O      0.933410000000     0.544460000000     0.077900000000    -0.483442   
O18      O      0.961780000000     0.548340000000     0.945100000000    -0.490378   
O19      O      0.883870000000     0.550370000000     0.997700000000    -0.485754   
O20      O      0.012860000000     0.547060000000     0.027990000000    -0.4844     
O21      O      0.012320000000     0.466540000000     0.027520000000    -0.484158   
O22      O      0.883840000000     0.469800000000     0.995130000000    -0.485673   
O23      O      0.964590000000     0.467940000000     0.943750000000    -0.485847   
O24      O      0.934110000000     0.463860000000     0.076160000000    -0.487631   
O25      O      0.027750000000     0.549650000000     0.564310000000    -0.489856   
O26      O      0.043880000000     0.546390000000     0.429410000000    -0.482456   
O27      O      0.971130000000     0.545810000000     0.487800000000    -0.486483   
O28      O      0.102260000000     0.545970000000     0.504230000000    -0.489589   
O29      O      0.102010000000     0.465500000000     0.504020000000    -0.489965   
O30      O      0.971050000000     0.465160000000     0.487260000000    -0.48488    
O31      O      0.043940000000     0.465700000000     0.430140000000    -0.470009   
O32      O      0.028150000000     0.469170000000     0.565460000000    -0.487837   
O33      O      0.454300000000     0.048260000000     0.109520000000    -0.491255   
O34      O      0.438810000000     0.051010000000     0.974560000000    -0.480198   
O35      O      0.381390000000     0.046320000000     0.049640000000    -0.474972   
O36      O      0.512480000000     0.044570000000     0.033540000000    -0.489703   
O37      O      0.512040000000     0.964060000000     0.031450000000    -0.491261   
O38      O      0.381040000000     0.965760000000     0.046820000000    -0.484458   
O39      O      0.439580000000     0.970280000000     0.973010000000    -0.482642   
O40      O      0.453160000000     0.967900000000     0.108150000000    -0.491762   
O41      O      0.548290000000     0.051710000000     0.616680000000    -0.479348   
O42      O      0.519020000000     0.046030000000     0.484370000000    -0.489926   
O43      O      0.469810000000     0.046600000000     0.567510000000    -0.488751   
O44      O      0.598510000000     0.048770000000     0.536620000000    -0.477688   
O45      O      0.598680000000     0.968410000000     0.537140000000    -0.488433   
O46      O      0.469320000000     0.966040000000     0.565180000000    -0.482446   
O47      O      0.518840000000     0.965490000000     0.485400000000    -0.471938   
O48      O      0.546540000000     0.970950000000     0.618360000000    -0.482186   
O49      O      0.442870000000     0.546220000000     0.113970000000    -0.491276   
O50      O      0.470380000000     0.547050000000     0.981370000000    -0.493581   
O51      O      0.390600000000     0.549220000000     0.033470000000    -0.49112    
O52      O      0.520000000000     0.546860000000     0.062150000000    -0.48035    
O53      O      0.519730000000     0.466100000000     0.060310000000    -0.482407   
O54      O      0.390660000000     0.468750000000     0.030690000000    -0.489194   
O55      O      0.470310000000     0.466670000000     0.979950000000    -0.488478   
O56      O      0.442480000000     0.465580000000     0.112820000000    -0.490961   
O57      O      0.530960000000     0.549180000000     0.605660000000    -0.488644   
O58      O      0.546770000000     0.546650000000     0.470750000000    -0.48537    
O59      O      0.471840000000     0.545940000000     0.530850000000    -0.487461   
O60      O      0.602860000000     0.549870000000     0.547810000000    -0.484106   
O61      O      0.603600000000     0.469180000000     0.548330000000    -0.484185   
O62      O      0.472720000000     0.465420000000     0.530360000000    -0.488679   
O63      O      0.546240000000     0.466000000000     0.471690000000    -0.48803    
O64      O      0.529590000000     0.468780000000     0.606360000000    -0.489158   
O65      O      0.444660000000     0.565750000000     0.864660000000    -0.293693   
O66      O      0.386410000000     0.457230000000     0.236650000000    -0.294727   
O67      O      0.522860000000     0.864010000000     0.476110000000    -0.287003   
O68      O      0.607230000000     0.151300000000     0.559200000000    -0.286814   
O69      O      0.412100000000     0.657920000000     0.108740000000    -0.296764   
O70      O      0.377550000000     0.150580000000     0.016060000000    -0.286904   
O71      O      0.389860000000     0.059570000000     0.848430000000    -0.28603    
O72      O      0.414410000000     0.952990000000     0.225570000000    -0.292704   
O73      O      0.859130000000     0.457240000000     0.422080000000    -0.293148   
O74      O      0.211710000000     0.562130000000     0.461780000000    -0.292548   
O75      O      0.769890000000     0.465370000000     0.928580000000    -0.294549   
O76      O      0.289690000000     0.463520000000     0.952280000000    -0.293691   
O77      O      0.933310000000     0.564720000000     0.827670000000    -0.293153   
O78      O      0.876480000000     0.453640000000     0.199970000000    -0.293517   
O79      O      0.103080000000     0.860770000000     0.480480000000    -0.296688   
O80      O      0.021760000000     0.362100000000     0.424060000000    -0.287384   
O81      O      0.859250000000     0.951030000000     0.432030000000    -0.291663   
O82      O      0.370800000000     0.050060000000     0.648940000000    -0.292575   
O83      O      0.969760000000     0.857460000000     0.089690000000    -0.296411   
O84      O      0.889400000000     0.152920000000     0.968210000000    -0.295896   
O85      O      0.774680000000     0.061530000000     0.054310000000    -0.293401   
O86      O      0.122760000000     0.063100000000     0.998640000000    -0.292688   
O87      O      0.951780000000     0.954680000000     0.673870000000    -0.293785   
O88      O      0.882590000000     0.959960000000     0.211340000000    -0.292548   


