data_structure

_audit_creation_method RASPA-1.0
_audit_creation_date 2023-5-25
_audit_author_name 'Poobodin Mano'

_cell_length_a    37.3083
_cell_length_b    37.361
_cell_length_c    37.6219
_cell_angle_alpha 90
_cell_angle_beta  90
_cell_angle_gamma 90
_cell_volume      52440.2

_symmetry_cell_setting          triclinic
_symmetry_space_group_name_Hall 'P 1'
_symmetry_space_group_name_H-M  'P 1'
_symmetry_Int_Tables_number     1

_symmetry_equiv_pos_as_xyz 'x,y,z'

loop_
_atom_site_label
_atom_site_type_symbol
_atom_site_fract_x
_atom_site_fract_y
_atom_site_fract_z
_atom_site_charge
C1       C      0.066310000000     0.952260000000     0.958920000000     0.302307   
C2       C      0.955250000000     0.037590000000     0.979990000000     0.315371   
C3       C      0.967840000000     0.938570000000     0.971360000000     0.312644   
C4       C      0.053550000000     0.051290000000     0.967480000000     0.314314   
C5       C      0.045780000000     0.051900000000     0.468740000000     0.313902   
C6       C      0.968430000000     0.933280000000     0.470180000000     0.319973   
C7       C      0.066140000000     0.953770000000     0.464280000000     0.314569   
C8       C      0.947980000000     0.031230000000     0.474600000000     0.306964   
C9       C      0.025730000000     0.495930000000     0.080710000000     0.482996   
C10      C      0.028270000000     0.495890000000     0.945900000000     0.483932   
C11      C      0.092490000000     0.497310000000     0.014930000000     0.377658   
C12      C      0.957260000000     0.493370000000     0.012610000000     0.362861   
C13      C      0.968630000000     0.492580000000     0.444250000000     0.482409   
C14      C      0.983330000000     0.494570000000     0.578330000000     0.474732   
C15      C      0.910510000000     0.493720000000     0.519730000000     0.377754   
C16      C      0.044900000000     0.491520000000     0.504740000000     0.384126   
C17      C      0.513860000000     0.052020000000     0.047410000000     0.486584   
C18      C      0.506850000000     0.027150000000     0.914860000000     0.486086   
C19      C      0.511920000000     0.970940000000     0.993960000000     0.48401    
C20      C      0.509380000000     0.104880000000     0.969390000000     0.482395   
C21      C      0.505740000000     0.005590000000     0.412900000000     0.476438   
C22      C      0.503720000000     0.987400000000     0.546700000000     0.477418   
C23      C      0.505210000000     0.064630000000     0.487040000000     0.486135   
C24      C      0.510090000000     0.930320000000     0.468390000000     0.483812   
C25      C      0.517420000000     0.463770000000     0.046840000000     0.473397   
C26      C      0.519130000000     0.597910000000     0.023590000000     0.47339    
C27      C      0.515310000000     0.518330000000     0.969280000000     0.481616   
C28      C      0.517120000000     0.541740000000     0.102600000000     0.480678   
C29      C      0.504820000000     0.429960000000     0.545890000000     0.476655   
C30      C      0.508860000000     0.563480000000     0.521690000000     0.476366   
C31      C      0.507250000000     0.484690000000     0.465630000000     0.474224   
C32      C      0.511170000000     0.509120000000     0.598680000000     0.469323   
C33      C      0.547040000000     0.515160000000     0.876010000000    -0.0336104  
C34      C      0.479970000000     0.512710000000     0.692040000000    -0.0315129  
C35      C      0.546410000000     0.523130000000     0.652560000000    -0.00326628 
C36      C      0.478470000000     0.525590000000     0.653450000000    -0.00299221 
C37      C      0.512500000000     0.484160000000     0.761210000000    -0.0562867  
C38      C      0.514800000000     0.543390000000     0.806670000000    -0.0561661  
C39      C      0.513420000000     0.518950000000     0.746810000000     0.0611931  
C40      C      0.545000000000     0.510330000000     0.691180000000    -0.0312862  
C41      C      0.513910000000     0.508600000000     0.821080000000     0.0612291  
C42      C      0.482030000000     0.517000000000     0.876560000000    -0.079741   
C43      C      0.512760000000     0.479160000000     0.798050000000    -0.0529292  
C44      C      0.480350000000     0.504040000000     0.915270000000     0.173039   
C45      C      0.548450000000     0.502370000000     0.914630000000     0.00566895 
C46      C      0.514560000000     0.548390000000     0.769840000000    -0.0542707  
C47      C      0.547880000000     0.528270000000     0.194070000000    -0.033658   
C48      C      0.476500000000     0.497680000000     0.374350000000    -0.0318236  
C49      C      0.540020000000     0.470140000000     0.410120000000    -0.00316392 
C50      C      0.472850000000     0.477410000000     0.409600000000    -0.00270289 
C51      C      0.514050000000     0.536520000000     0.313000000000    -0.0563149  
C52      C      0.510550000000     0.489220000000     0.255460000000    -0.0561325  
C53      C      0.510180000000     0.499540000000     0.319270000000     0.0609351  
C54      C      0.541470000000     0.490810000000     0.375040000000    -0.0313787  
C55      C      0.514340000000     0.526200000000     0.249180000000     0.0609642  
C56      C      0.482930000000     0.534450000000     0.193430000000    -0.0797132  
C57      C      0.516070000000     0.549610000000     0.278230000000    -0.0531026  
C58      C      0.483880000000     0.555150000000     0.158180000000     0.173088   
C59      C      0.551310000000     0.548450000000     0.158770000000     0.00598855 
C60      C      0.508500000000     0.476130000000     0.290230000000    -0.0542365  
C61      C      0.479800000000     0.837570000000     0.471500000000    -0.0333594  
C62      C      0.544030000000     0.654260000000     0.499750000000    -0.031762   
C63      C      0.476270000000     0.620630000000     0.519430000000    -0.00191974 
C64      C      0.544710000000     0.618740000000     0.519850000000    -0.0018114  
C65      C      0.513780000000     0.719230000000     0.460770000000    -0.0565144  
C66      C      0.512940000000     0.774430000000     0.511000000000    -0.0562537  
C67      C      0.513040000000     0.711020000000     0.497300000000     0.0616189  
C68      C      0.479150000000     0.655970000000     0.499290000000    -0.0316129  
C69      C      0.513600000000     0.782700000000     0.474480000000     0.0616065  
C70      C      0.545110000000     0.839230000000     0.473670000000    -0.0801718  
C71      C      0.514090000000     0.754860000000     0.449570000000    -0.0532119  
C72      C      0.546060000000     0.876080000000     0.455740000000     0.173979   
C73      C      0.478350000000     0.874160000000     0.453490000000     0.00589601 
C74      C      0.512690000000     0.738830000000     0.522190000000    -0.0544892  
C75      C      0.534940000000     0.157100000000     0.507830000000    -0.0335712  
C76      C      0.469610000000     0.339480000000     0.539920000000    -0.0315868  
C77      C      0.536530000000     0.373670000000     0.560890000000    -0.00204558 
C78      C      0.469090000000     0.375610000000     0.559010000000    -0.00270966 
C79      C      0.501490000000     0.275870000000     0.500150000000    -0.0565159  
C80      C      0.500420000000     0.219010000000     0.548520000000    -0.0562129  
C81      C      0.500910000000     0.282920000000     0.536920000000     0.0615946  
C82      C      0.535020000000     0.337660000000     0.541690000000    -0.0318425  
C83      C      0.501100000000     0.211990000000     0.511750000000     0.0616443  
C84      C      0.469990000000     0.155250000000     0.507670000000    -0.0800623  
C85      C      0.501560000000     0.240640000000     0.487790000000    -0.0531136  
C86      C      0.469270000000     0.120030000000     0.486740000000     0.173774   
C87      C      0.537600000000     0.122100000000     0.487040000000     0.00578757 
C88      C      0.500300000000     0.254260000000     0.560890000000    -0.0543574  
C89      C      0.546730000000     0.877850000000     0.999960000000    -0.0337449  
C90      C      0.486550000000     0.691690000000     0.017240000000    -0.0318609  
C91      C      0.553640000000     0.652420000000     0.009080000000    -0.00355556 
C92      C      0.485490000000     0.652160000000     0.006830000000    -0.0015162  
C93      C      0.517960000000     0.763850000000     0.040130000000    -0.0563315  
C94      C      0.516600000000     0.805090000000     0.978060000000    -0.0561215  
C95      C      0.518670000000     0.746820000000     0.006730000000     0.0612969  
C96      C      0.551490000000     0.692090000000     0.019140000000    -0.0309838  
C97      C      0.515910000000     0.822130000000     0.011450000000     0.0611092  
C98      C      0.481810000000     0.876130000000     0.999790000000    -0.0794222  
C99      C      0.516630000000     0.801190000000     0.042340000000    -0.0525487  
C100     C      0.478950000000     0.915890000000     0.009890000000     0.172975   
C101     C      0.547220000000     0.917500000000     0.010000000000     0.0058329  
C102     C      0.517970000000     0.767760000000     0.975850000000    -0.0543006  
C103     C      0.542510000000     0.195190000000     0.980540000000    -0.0331328  
C104     C      0.482190000000     0.374280000000     0.034660000000    -0.0321973  
C105     C      0.550140000000     0.406550000000     0.055400000000    -0.0023355  
C106     C      0.482770000000     0.408110000000     0.057600000000    -0.0017413  
C107     C      0.511750000000     0.315160000000     0.986590000000    -0.0560702  
C108     C      0.511960000000     0.253590000000     0.028920000000    -0.056051   
C109     C      0.513180000000     0.318420000000     0.023880000000     0.061686   
C110     C      0.547600000000     0.372740000000     0.032540000000    -0.0318024  
C111     C      0.510530000000     0.250320000000     0.991630000000     0.0619011  
C112     C      0.477140000000     0.195250000000     0.983460000000    -0.0798712  
C113     C      0.510420000000     0.281340000000     0.970730000000    -0.052381   
C114     C      0.474900000000     0.161130000000     0.960720000000     0.173374   
C115     C      0.542410000000     0.161300000000     0.957720000000     0.00593363 
C116     C      0.513250000000     0.287400000000     0.044780000000    -0.0534775  
C117     C      0.471070000000     0.007670000000     0.823890000000    -0.0332709  
C118     C      0.534470000000     0.991530000000     0.639630000000    -0.0321273  
C119     C      0.468710000000     0.974980000000     0.601170000000    -0.00237228 
C120     C      0.536540000000     0.975030000000     0.602490000000    -0.00227336 
C121     C      0.500790000000     0.026360000000     0.704970000000    -0.0556188  
C122     C      0.501460000000     0.972580000000     0.756720000000    -0.0570353  
C123     C      0.500990000000     0.990150000000     0.694540000000     0.0605574  
C124     C      0.469280000000     0.991480000000     0.638390000000    -0.0320445  
C125     C      0.501550000000     0.008800000000     0.767100000000     0.0623097  
C126     C      0.535820000000     0.007700000000     0.821700000000    -0.079358   
C127     C      0.501090000000     0.035470000000     0.740970000000    -0.0533928  
C128     C      0.539140000000     0.026230000000     0.857900000000     0.173385   
C129     C      0.470510000000     0.025840000000     0.860320000000     0.00567196 
C130     C      0.501200000000     0.963460000000     0.720690000000    -0.0539674  
C131     C      0.547310000000     0.047650000000     0.138570000000    -0.0337443  
C132     C      0.476510000000     0.025700000000     0.320160000000    -0.0314047  
C133     C      0.541730000000     0.005910000000     0.358150000000    -0.00105482 
C134     C      0.473350000000     0.006290000000     0.355820000000    -0.00161392 
C135     C      0.512210000000     0.063350000000     0.256940000000    -0.0565262  
C136     C      0.513340000000     0.011770000000     0.203050000000    -0.0556793  
C137     C      0.511050000000     0.026740000000     0.265770000000     0.0620801  
C138     C      0.541370000000     0.025400000000     0.322510000000    -0.0316545  
C139     C      0.514640000000     0.048370000000     0.194180000000     0.0616672  
C140     C      0.482050000000     0.051130000000     0.138920000000    -0.0807206  
C141     C      0.514020000000     0.073960000000     0.221380000000    -0.0527605  
C142     C      0.481490000000     0.069050000000     0.102310000000     0.174417   
C143     C      0.549140000000     0.064960000000     0.101740000000     0.00645309 
C144     C      0.511660000000     0.001170000000     0.238590000000    -0.0534718  
C145     C      0.819880000000     0.422800000000     0.457640000000    -0.0274836  
C146     C      0.651250000000     0.515740000000     0.498670000000    -0.0198879  
C147     C      0.609600000000     0.456960000000     0.525760000000    -0.0260413  
C148     C      0.610430000000     0.517840000000     0.501910000000    -0.0272967  
C149     C      0.726520000000     0.485530000000     0.507780000000    -0.0568929  
C150     C      0.744830000000     0.453880000000     0.442870000000    -0.0561239  
C151     C      0.699330000000     0.474430000000     0.484270000000     0.0618514  
C152     C      0.650450000000     0.455290000000     0.522210000000    -0.0201797  
C153     C      0.772060000000     0.465500000000     0.466090000000     0.0611134  
C154     C      0.819960000000     0.479400000000     0.424600000000    -0.0759739  
C155     C      0.762570000000     0.481200000000     0.498580000000    -0.0530052  
C156     C      0.860710000000     0.477080000000     0.419190000000     0.155943   
C157     C      0.860510000000     0.419460000000     0.453450000000    -0.0159322  
C158     C      0.708820000000     0.458520000000     0.451920000000    -0.0547769  
C159     C      0.180390000000     0.555790000000     0.535620000000    -0.0277337  
C160     C      0.362090000000     0.485280000000     0.505900000000    -0.0225873  
C161     C      0.405320000000     0.532320000000     0.548670000000    -0.0207492  
C162     C      0.402820000000     0.487880000000     0.501570000000    -0.0200118  
C163     C      0.289970000000     0.496780000000     0.543450000000    -0.056581   
C164     C      0.253180000000     0.544720000000     0.499500000000    -0.0562482  
C165     C      0.309330000000     0.519870000000     0.520940000000     0.0616289  
C166     C      0.364660000000     0.529770000000     0.553440000000    -0.0224718  
C167     C      0.233800000000     0.521570000000     0.521950000000     0.0614412  
C168     C      0.179380000000     0.510390000000     0.488540000000    -0.0753971  
C169     C      0.252510000000     0.497710000000     0.543870000000    -0.0531707  
C170     C      0.138620000000     0.506120000000     0.492350000000     0.155574   
C171     C      0.139740000000     0.552640000000     0.540370000000    -0.0142146  
C172     C      0.290620000000     0.543780000000     0.499090000000    -0.0545912  
C173     C      0.661740000000     0.545230000000     0.002450000000    -0.0233579  
C174     C      0.847930000000     0.561520000000     0.064980000000    -0.0265053  
C175     C      0.885710000000     0.569230000000     0.997660000000    -0.0220145  
C176     C      0.888550000000     0.555930000000     0.062730000000    -0.0227858  
C177     C      0.773480000000     0.585220000000     0.039570000000    -0.0565437  
C178     C      0.735880000000     0.521430000000     0.028370000000    -0.05632    
C179     C      0.792460000000     0.553410000000     0.032460000000     0.0612419  
C180     C      0.845160000000     0.574600000000     0.001100000000    -0.0267868  
C181     C      0.716900000000     0.553250000000     0.035390000000     0.061141   
C182     C      0.663660000000     0.532230000000     0.065980000000    -0.0716659  
C183     C      0.736040000000     0.585010000000     0.040990000000    -0.0534266  
C184     C      0.622800000000     0.537140000000     0.068290000000     0.155359   
C185     C      0.621090000000     0.550350000000     0.004710000000    -0.0140553  
C186     C      0.773330000000     0.521630000000     0.026940000000    -0.0543988  
C187     C      0.189220000000     0.547460000000     0.091030000000    -0.0274699  
C188     C      0.372960000000     0.563760000000     0.022200000000    -0.0221407  
C189     C      0.413400000000     0.518440000000     0.069250000000    -0.0216933  
C190     C      0.413830000000     0.565910000000     0.025030000000    -0.0206593  
C191     C      0.298580000000     0.530630000000     0.033640000000    -0.0564571  
C192     C      0.264790000000     0.577860000000     0.080640000000    -0.0561791  
C193     C      0.319370000000     0.552060000000     0.056530000000     0.0619402  
C194     C      0.372560000000     0.515890000000     0.066360000000    -0.0220014  
C195     C      0.243990000000     0.556580000000     0.057630000000     0.0618532  
C196     C      0.192570000000     0.594290000000     0.045510000000    -0.0750947  
C197     C      0.261190000000     0.532970000000     0.034290000000    -0.0529261  
C198     C      0.151760000000     0.593450000000     0.040460000000     0.154701   
C199     C      0.148400000000     0.545650000000     0.087250000000    -0.0147869  
C200     C      0.302160000000     0.575520000000     0.080000000000    -0.0545094  
C201     C      0.019540000000     0.528620000000     0.853640000000    -0.0334068  
C202     C      0.999070000000     0.463130000000     0.670900000000    -0.0316752  
C203     C      0.982130000000     0.529570000000     0.633760000000    -0.00161074 
C204     C      0.980540000000     0.461320000000     0.634750000000    -0.00162608 
C205     C      0.036090000000     0.495790000000     0.735710000000    -0.0566681  
C206     C      0.983170000000     0.496640000000     0.788390000000    -0.0560319  
C207     C      0.999640000000     0.496220000000     0.726010000000     0.0619327  
C208     C      0.000560000000     0.527970000000     0.669980000000    -0.0320763  
C209     C      0.019620000000     0.496230000000     0.798110000000     0.0614819  
C210     C      0.019020000000     0.463610000000     0.853580000000    -0.0802562  
C211     C      0.045880000000     0.495810000000     0.771530000000    -0.0528335  
C212     C      0.036760000000     0.461810000000     0.890290000000     0.173648   
C213     C      0.037060000000     0.529850000000     0.890310000000     0.00557054 
C214     C      0.973390000000     0.496650000000     0.752580000000    -0.0544663  
C215     C      0.013020000000     0.462650000000     0.172070000000    -0.0339219  
C216     C      0.976330000000     0.525450000000     0.353150000000    -0.0320317  
C217     C      0.959830000000     0.458130000000     0.388680000000    -0.00263053 
C218     C      0.956240000000     0.525620000000     0.388550000000    -0.00108097 
C219     C      0.019200000000     0.494950000000     0.290910000000    -0.0567734  
C220     C      0.970430000000     0.492880000000     0.234470000000    -0.0559974  
C221     C      0.982170000000     0.493070000000     0.297900000000     0.0618357  
C222     C      0.979910000000     0.460310000000     0.353350000000    -0.0313036  
C223     C      0.007470000000     0.494760000000     0.227460000000     0.0612321  
C224     C      0.009650000000     0.527630000000     0.172140000000    -0.0805147  
C225     C      0.031630000000     0.495770000000     0.255910000000    -0.0530122  
C226     C      0.029830000000     0.530260000000     0.136720000000     0.17465    
C227     C      0.033240000000     0.462370000000     0.136780000000     0.00617935 
C228     C      0.958010000000     0.492050000000     0.269460000000    -0.054604   
C229     C      0.995970000000     0.823120000000     0.548400000000    -0.0280525  
C230     C      0.009410000000     0.636400000000     0.488540000000    -0.0217469  
C231     C      0.969290000000     0.598750000000     0.542130000000    -0.019896   
C232     C      0.011860000000     0.595810000000     0.493340000000    -0.0220867  
C233     C      0.978460000000     0.711330000000     0.498490000000    -0.056467   
C234     C      0.028320000000     0.747570000000     0.540790000000    -0.0560529  
C235     C      0.001380000000     0.691810000000     0.521050000000     0.0616931  
C236     C      0.966600000000     0.639430000000     0.537570000000    -0.0226098  
C237     C      0.005850000000     0.767060000000     0.517760000000     0.0613018  
C238     C      0.043080000000     0.818340000000     0.503200000000    -0.0761212  
C239     C      0.980850000000     0.748630000000     0.496860000000    -0.0528439  
C240     C      0.041950000000     0.858920000000     0.496620000000     0.157093   
C241     C      0.993560000000     0.863610000000     0.542690000000    -0.013684   
C242     C      0.026100000000     0.710260000000     0.542240000000    -0.0545386  
C243     C      0.989920000000     0.165500000000     0.555970000000    -0.0278036  
C244     C      0.950620000000     0.347920000000     0.492810000000    -0.022748   
C245     C      0.988700000000     0.389220000000     0.545250000000    -0.0186689  
C246     C      0.945210000000     0.388320000000     0.497350000000    -0.0196648  
C247     C      0.991100000000     0.277120000000     0.502110000000    -0.0563306  
C248     C      0.947110000000     0.234640000000     0.545060000000    -0.0561886  
C249     C      0.965640000000     0.293470000000     0.524520000000     0.0616333  
C250     C      0.994620000000     0.348900000000     0.541230000000    -0.0225808  
C251     C      0.972730000000     0.218340000000     0.522820000000     0.0614866  
C252     C      0.945250000000     0.161350000000     0.508300000000    -0.0762416  
C253     C      0.994510000000     0.239880000000     0.501350000000    -0.0528988  
C254     C      0.953330000000     0.121360000000     0.503240000000     0.157657   
C255     C      0.998880000000     0.125700000000     0.552040000000    -0.0139785  
C256     C      0.943700000000     0.271900000000     0.545830000000    -0.0544716  
C257     C      0.651350000000     0.978660000000     0.508540000000    -0.0234445  
C258     C      0.832080000000     0.980930000000     0.430410000000    -0.0268122  
C259     C      0.877700000000     0.959720000000     0.489580000000    -0.0241927  
C260     C      0.872530000000     0.987560000000     0.429330000000    -0.0220222  
C261     C      0.761660000000     0.949270000000     0.457480000000    -0.0566262  
C262     C      0.724690000000     0.007910000000     0.485650000000    -0.0559985  
C263     C      0.780880000000     0.979260000000     0.469800000000     0.061574   
C264     C      0.837140000000     0.953610000000     0.489560000000    -0.0255969  
C265     C      0.705460000000     0.978110000000     0.472900000000     0.0610896  
C266     C      0.651540000000     0.004970000000     0.449250000000    -0.0708228  
C267     C      0.724260000000     0.948840000000     0.459040000000    -0.0532547  
C268     C      0.610790000000     0.000190000000     0.446810000000     0.153584   
C269     C      0.610620000000     0.973930000000     0.506360000000    -0.014393   
C270     C      0.762100000000     0.008360000000     0.484050000000    -0.054173   
C271     C      0.181380000000     0.961040000000     0.534550000000    -0.0289446  
C272     C      0.359920000000     0.025600000000     0.481630000000    -0.0217208  
C273     C      0.403530000000     0.965100000000     0.500720000000    -0.0238184  
C274     C      0.400790000000     0.028160000000     0.484820000000    -0.0217005  
C275     C      0.287580000000     0.986780000000     0.475580000000    -0.0565836  
C276     C      0.252710000000     0.001150000000     0.539850000000    -0.0560639  
C277     C      0.307830000000     0.995610000000     0.505930000000     0.0614255  
C278     C      0.362810000000     0.962250000000     0.497050000000    -0.0212282  
C279     C      0.232480000000     0.992090000000     0.509560000000     0.0613177  
C280     C      0.176820000000     0.024450000000     0.518400000000    -0.0762461  
C281     C      0.250210000000     0.985040000000     0.477510000000    -0.0531721  
C282     C      0.136000000000     0.021280000000     0.514150000000     0.157526   
C283     C      0.140800000000     0.956450000000     0.530840000000    -0.0117754  
C284     C      0.290080000000     0.002840000000     0.537940000000    -0.0543192  
C285     C      0.002470000000     0.824300000000     0.054310000000    -0.0287036  
C286     C      0.049000000000     0.641550000000     0.998260000000    -0.0204133  
C287     C      0.004300000000     0.598980000000     0.044080000000    -0.0218674  
C288     C      0.054620000000     0.601280000000     0.003380000000    -0.0234523  
C289     C      0.006710000000     0.711800000000     0.002160000000    -0.0568457  
C290     C      0.044820000000     0.754020000000     0.050560000000    -0.0560837  
C291     C      0.028570000000     0.695320000000     0.027930000000     0.0620466  
C292     C      0.998010000000     0.639160000000     0.039210000000    -0.0208449  
C293     C      0.022990000000     0.770500000000     0.024760000000     0.0613876  
C294     C      0.053790000000     0.826580000000     0.013620000000    -0.0766005  
C295     C      0.004030000000     0.749080000000     0.000690000000    -0.0530705  
C296     C      0.047520000000     0.866630000000     0.006800000000     0.157964   
C297     C      0.995130000000     0.864180000000     0.048470000000    -0.0128188  
C298     C      0.047520000000     0.716730000000     0.052020000000    -0.0546875  
C299     C      0.022330000000     0.165290000000     0.054870000000    -0.0280299  
C300     C      0.001040000000     0.350490000000     0.992250000000    -0.0223358  
C301     C      0.037260000000     0.391220000000     0.046360000000    -0.0193131  
C302     C      0.996030000000     0.390920000000     0.996370000000    -0.0207355  
C303     C      0.036480000000     0.277820000000     0.004420000000    -0.0564464  
C304     C      0.987140000000     0.239060000000     0.045080000000    -0.0558976  
C305     C      0.011470000000     0.296130000000     0.025770000000     0.0619043  
C306     C      0.042410000000     0.350700000000     0.042630000000    -0.0228222  
C307     C      0.011770000000     0.220740000000     0.023310000000     0.0616767  
C308     C      0.978200000000     0.167790000000     0.006630000000    -0.0761355  
C309     C      0.036470000000     0.240420000000     0.003220000000    -0.0527261  
C310     C      0.981610000000     0.127330000000     0.000390000000     0.15813    
C311     C      0.026750000000     0.124880000000     0.049740000000    -0.0135409  
C312     C      0.987030000000     0.276440000000     0.046150000000    -0.0541611  
C313     C      0.836160000000     0.977160000000     0.970460000000    -0.0283961  
C314     C      0.653300000000     0.044250000000     0.940360000000    -0.0220733  
C315     C      0.615700000000     0.010720000000     0.998230000000    -0.0220927  
C316     C      0.612410000000     0.040790000000     0.940940000000    -0.021469   
C317     C      0.729620000000     0.041070000000     0.971120000000    -0.0566757  
C318     C      0.760790000000     0.981260000000     0.938740000000    -0.0563539  
C319     C      0.707680000000     0.013420000000     0.957980000000     0.0622761  
C320     C      0.656540000000     0.014320000000     0.997880000000    -0.0215388  
C321     C      0.782790000000     0.008850000000     0.951960000000     0.0618239  
C322     C      0.834080000000     0.006930000000     0.912420000000    -0.0760479  
C323     C      0.766890000000     0.038690000000     0.968080000000    -0.052978   
C324     C      0.875140000000     0.009760000000     0.911490000000     0.157346   
C325     C      0.877100000000     0.979310000000     0.970890000000    -0.0128925  
C326     C      0.723560000000     0.983640000000     0.941790000000    -0.0548618  
C327     C      0.177960000000     0.012580000000     0.978660000000    -0.0283872  
C328     C      0.369740000000     0.015510000000     0.019970000000    -0.0212624  
C329     C      0.403180000000     0.036290000000     0.954110000000    -0.0178805  
C330     C      0.409760000000     0.010560000000     0.012970000000    -0.0218192  
C331     C      0.294820000000     0.045890000000     0.005850000000    -0.0565143  
C332     C      0.254270000000     0.984990000000     0.989950000000    -0.0563989  
C333     C      0.311770000000     0.015420000000     0.991560000000     0.062058   
C334     C      0.362810000000     0.040890000000     0.960350000000    -0.023389   
C335     C      0.237350000000     0.015430000000     0.004320000000     0.0619428  
C336     C      0.188730000000     0.990220000000     0.039020000000    -0.0762081  
C337     C      0.257900000000     0.045790000000     0.012070000000    -0.0530324  
C338     C      0.149080000000     0.995470000000     0.048760000000     0.157716   
C339     C      0.138270000000     0.018390000000     0.987020000000    -0.0114664  
C340     C      0.291180000000     0.985110000000     0.983660000000    -0.0547299  
C341     C      0.008310000000     0.028560000000     0.624640000000    -0.0259533  
C342     C      0.997730000000     0.980170000000     0.813940000000    -0.0235059  
C343     C      0.955560000000     0.039020000000     0.842700000000    -0.0199655  
C344     C      0.996670000000     0.987420000000     0.853980000000    -0.0284351  
C345     C      0.974560000000     0.986640000000     0.736150000000    -0.0568674  
C346     C      0.030630000000     0.023470000000     0.703000000000    -0.0560213  
C347     C      0.996880000000     0.009200000000     0.756390000000     0.062356   
C348     C      0.957310000000     0.030780000000     0.802860000000    -0.02713    
C349     C      0.008450000000     0.000730000000     0.682810000000     0.0617738  
C350     C      0.048830000000     0.978470000000     0.637400000000    -0.0769393  
C351     C      0.980410000000     0.982490000000     0.699680000000    -0.0531443  
C352     C      0.051350000000     0.969210000000     0.597690000000     0.158219   
C353     C      0.009850000000     0.020340000000     0.584810000000    -0.0184378  
C354     C      0.024820000000     0.027570000000     0.739480000000    -0.0543581  
C355     C      0.055200000000     0.033030000000     0.126720000000    -0.0274799  
C356     C      0.001280000000     0.975890000000     0.306220000000    -0.0252496  
C357     C      0.013090000000     0.041040000000     0.347070000000    -0.020207   
C358     C      0.003300000000     0.974850000000     0.346870000000    -0.0261875  
C359     C      0.994700000000     0.010250000000     0.232550000000    -0.0558548  
C360     C      0.061830000000     0.999840000000     0.201080000000    -0.056788   
C361     C      0.025180000000     0.005640000000     0.254180000000     0.0615054  
C362     C      0.010870000000     0.040890000000     0.306430000000    -0.0270668  
C363     C      0.031330000000     0.004360000000     0.179480000000     0.0622003  
C364     C      0.045030000000     0.968180000000     0.127690000000    -0.0756359  
C365     C      0.997880000000     0.009590000000     0.195540000000    -0.0531255  
C366     C      0.041780000000     0.967260000000     0.087000000000     0.154987   
C367     C      0.052410000000     0.033480000000     0.086110000000    -0.0122662  
C368     C      0.058660000000     0.000500000000     0.238110000000    -0.0532419  
Cu1      Cu     0.015240000000     0.992600000000     0.002160000000     0.883277   
Cu2      Cu     0.006240000000     0.997220000000     0.936720000000     0.835218   
Cu3      Cu     0.009300000000     0.991510000000     0.502470000000     0.864565   
Cu4      Cu     0.004890000000     0.993630000000     0.436440000000     0.847798   
Cu5      Cu     0.025970000000     0.457440000000     0.013270000000     1.1916     
Cu6      Cu     0.023760000000     0.533650000000     0.013130000000     1.19414    
Cu7      Cu     0.977100000000     0.455040000000     0.511610000000     1.19625    
Cu8      Cu     0.978140000000     0.531310000000     0.510510000000     1.19103    
Cu9      Cu     0.472640000000     0.037600000000     0.983090000000     1.20971    
Cu10     Cu     0.548610000000     0.038260000000     0.979950000000     1.2018     
Cu11     Cu     0.468060000000     0.995960000000     0.478960000000     1.20369    
Cu12     Cu     0.544210000000     0.998240000000     0.480840000000     1.22608    
Cu13     Cu     0.479320000000     0.531490000000     0.036040000000     1.20478    
Cu14     Cu     0.555440000000     0.530300000000     0.035390000000     1.20444    
Cu15     Cu     0.470060000000     0.497770000000     0.532830000000     1.20487    
Cu16     Cu     0.546230000000     0.495060000000     0.531770000000     1.19799    
H1       H      0.515260000000     0.575290000000     0.759160000000     0.0440501  
H2       H      0.570920000000     0.504410000000     0.861830000000     0.0356137  
H3       H      0.457330000000     0.508110000000     0.862490000000     0.0502786  
H4       H      0.552180000000     0.552330000000     0.652370000000     0.0364425  
H5       H      0.552530000000     0.472890000000     0.914810000000     0.0445733  
H6       H      0.456260000000     0.523640000000     0.706360000000     0.0346711  
H7       H      0.569820000000     0.519460000000     0.704880000000     0.0347214  
H8       H      0.454530000000     0.513530000000     0.640530000000     0.0390166  
H9       H      0.458120000000     0.518860000000     0.928600000000     0.00261113 
H10      H      0.515650000000     0.566600000000     0.823860000000     0.0400687  
H11      H      0.572150000000     0.514770000000     0.927640000000     0.0356956  
H12      H      0.511590000000     0.460950000000     0.744030000000     0.0413657  
H13      H      0.548520000000     0.544930000000     0.875450000000     0.0364184  
H14      H      0.569060000000     0.509400000000     0.639040000000     0.041217   
H15      H      0.478250000000     0.482950000000     0.692560000000     0.038174   
H16      H      0.544540000000     0.480530000000     0.691650000000     0.0379927  
H17      H      0.512020000000     0.452260000000     0.808730000000     0.0479967  
H18      H      0.482460000000     0.546810000000     0.876230000000     0.0458689  
H19      H      0.474810000000     0.555130000000     0.653350000000     0.0352625  
H20      H      0.446840000000     0.464270000000     0.912760000000     0.139104   
H21      H      0.505600000000     0.447630000000     0.294610000000     0.0441259  
H22      H      0.572520000000     0.533240000000     0.210000000000     0.0353939  
H23      H      0.459260000000     0.543450000000     0.209090000000     0.0497117  
H24      H      0.540240000000     0.441010000000     0.404050000000     0.0348999  
H25      H      0.557880000000     0.576890000000     0.164550000000     0.0456736  
H26      H      0.451850000000     0.492960000000     0.358370000000     0.034547   
H27      H      0.564960000000     0.481120000000     0.359530000000     0.0344139  
H28      H      0.450020000000     0.488910000000     0.424750000000     0.0371415  
H29      H      0.459830000000     0.547080000000     0.142550000000     0.000173471
H30      H      0.509100000000     0.470530000000     0.233530000000     0.0403232  
H31      H      0.574100000000     0.536860000000     0.143640000000     0.0360326  
H32      H      0.515520000000     0.555190000000     0.334940000000     0.0408713  
H33      H      0.546130000000     0.499040000000     0.188550000000     0.0372091  
H34      H      0.564610000000     0.476240000000     0.425640000000     0.0384041  
H35      H      0.478490000000     0.526880000000     0.379970000000     0.0379632  
H36      H      0.545450000000     0.519780000000     0.380810000000     0.0377096  
H37      H      0.518950000000     0.578110000000     0.273840000000     0.0475417  
H38      H      0.479470000000     0.505420000000     0.187620000000     0.0462004  
H39      H      0.466350000000     0.448990000000     0.403660000000     0.0344857  
H40      H      0.457020000000     0.598270000000     0.169490000000     0.138454   
H41      H      0.512020000000     0.732830000000     0.550340000000     0.0441776  
H42      H      0.456280000000     0.821640000000     0.462470000000     0.035658   
H43      H      0.569960000000     0.824340000000     0.466590000000     0.0505933  
H44      H      0.470110000000     0.626410000000     0.547780000000     0.0354616  
H45      H      0.475980000000     0.870100000000     0.424300000000     0.0466001  
H46      H      0.568730000000     0.669490000000     0.506640000000     0.0344356  
H47      H      0.455190000000     0.672490000000     0.505770000000     0.0342988  
H48      H      0.566920000000     0.602180000000     0.508990000000     0.0361954  
H49      H      0.568540000000     0.891540000000     0.467860000000     0.00749902 
H50      H      0.512430000000     0.795440000000     0.530800000000     0.0400603  
H51      H      0.453800000000     0.888300000000     0.462590000000     0.0366353  
H52      H      0.513940000000     0.698160000000     0.441040000000     0.0408751  
H53      H      0.477710000000     0.841290000000     0.500800000000     0.0368121  
H54      H      0.453290000000     0.605310000000     0.508340000000     0.0373372  
H55      H      0.544380000000     0.648890000000     0.470630000000     0.0365829  
H56      H      0.478990000000     0.650570000000     0.470170000000     0.0369473  
H57      H      0.514520000000     0.760870000000     0.421410000000     0.0477659  
H58      H      0.544890000000     0.843060000000     0.503030000000     0.0462161  
H59      H      0.550860000000     0.624130000000     0.548270000000     0.0363663  
H60      H      0.578430000000     0.868540000000     0.415940000000     0.142256   
H61      H      0.499950000000     0.259320000000     0.589230000000     0.0445428  
H62      H      0.558820000000     0.173740000000     0.501350000000     0.0356619  
H63      H      0.445230000000     0.170710000000     0.501520000000     0.0502782  
H64      H      0.538660000000     0.368630000000     0.589940000000     0.0351447  
H65      H      0.542880000000     0.128460000000     0.458640000000     0.0442205  
H66      H      0.444820000000     0.324570000000     0.547140000000     0.0349111  
H67      H      0.558520000000     0.321400000000     0.550170000000     0.0344103  
H68      H      0.445850000000     0.391360000000     0.549170000000     0.0405219  
H69      H      0.447350000000     0.103200000000     0.498100000000    -0.00138144 
H70      H      0.500190000000     0.197310000000     0.567570000000     0.0403982  
H71      H      0.561040000000     0.106820000000     0.497200000000     0.0384133  
H72      H      0.502090000000     0.297530000000     0.481070000000     0.0410876  
H73      H      0.535470000000     0.151150000000     0.536840000000     0.0368323  
H74      H      0.561160000000     0.388010000000     0.552380000000     0.0367203  
H75      H      0.469410000000     0.344190000000     0.510700000000     0.0381931  
H76      H      0.537060000000     0.342320000000     0.512520000000     0.0379407  
H77      H      0.502170000000     0.235580000000     0.459450000000     0.0477433  
H78      H      0.469820000000     0.149140000000     0.536650000000     0.0456916  
H79      H      0.465040000000     0.370770000000     0.587900000000     0.0358805  
H80      H      0.435710000000     0.129800000000     0.448400000000     0.137454   
H81      H      0.518370000000     0.755040000000     0.949990000000     0.0438438  
H82      H      0.571380000000     0.865100000000     0.010800000000     0.035823   
H83      H      0.457820000000     0.861780000000     0.010140000000     0.0501254  
H84      H      0.560070000000     0.650310000000     0.980290000000     0.0355534  
H85      H      0.552510000000     0.919840000000     0.039000000000     0.0429044  
H86      H      0.462450000000     0.705040000000     0.005890000000     0.0345744  
H87      H      0.576010000000     0.705720000000     0.009090000000     0.0355329  
H88      H      0.462030000000     0.639590000000     0.020120000000     0.0377908  
H89      H      0.456360000000     0.927570000000     0.994260000000    -0.000992443
H90      H      0.516050000000     0.820610000000     0.953780000000     0.0398545  
H91      H      0.569930000000     0.930430000000     0.995850000000     0.0351125  
H92      H      0.518290000000     0.748310000000     0.064400000000     0.0426015  
H93      H      0.547350000000     0.875310000000     0.970470000000     0.0364714  
H94      H      0.576140000000     0.640020000000     0.024050000000     0.045936   
H95      H      0.485220000000     0.694030000000     0.046740000000     0.0398112  
H96      H      0.551110000000     0.694590000000     0.048640000000     0.0405008  
H97      H      0.516110000000     0.813910000000     0.068200000000     0.0482034  
H98      H      0.481640000000     0.873650000000     0.970280000000     0.0453723  
H99      H      0.481120000000     0.650190000000     0.977650000000     0.0345111  
H100     H      0.445380000000     0.915810000000     0.049420000000     0.136916   
H101     H      0.514370000000     0.289490000000     0.073460000000     0.0451749  
H102     H      0.566400000000     0.211460000000     0.973240000000     0.0369102  
H103     H      0.452730000000     0.211710000000     0.978700000000     0.051001   
H104     H      0.553810000000     0.398370000000     0.083590000000     0.0348218  
H105     H      0.544060000000     0.169320000000     0.929300000000     0.0490586  
H106     H      0.457860000000     0.358510000000     0.041610000000     0.0358608  
H107     H      0.571550000000     0.355820000000     0.037930000000     0.0352685  
H108     H      0.458870000000     0.424610000000     0.051090000000     0.0404672  
H109     H      0.451840000000     0.144950000000     0.970620000000     0.00525704 
H110     H      0.512170000000     0.230070000000     0.045700000000     0.0435622  
H111     H      0.566800000000     0.145420000000     0.963970000000     0.0411739  
H112     H      0.511700000000     0.338690000000     0.969820000000     0.0442226  
H113     H      0.544930000000     0.187460000000     0.009030000000     0.0409351  
H114     H      0.574260000000     0.421950000000     0.047250000000     0.0412136  
H115     H      0.480280000000     0.382150000000     0.006170000000     0.0429823  
H116     H      0.547980000000     0.380520000000     0.003970000000     0.0412818  
H117     H      0.509390000000     0.279250000000     0.942040000000     0.0488619  
H118     H      0.477420000000     0.187490000000     0.012040000000     0.0507072  
H119     H      0.480620000000     0.400030000000     0.085970000000     0.03415    
H120     H      0.443100000000     0.175700000000     0.922440000000     0.139457   
H121     H      0.501380000000     0.935510000000     0.713060000000     0.0435589  
H122     H      0.446180000000     0.015250000000     0.809400000000     0.035911   
H123     H      0.559660000000     0.014670000000     0.805270000000     0.0505228  
H124     H      0.464440000000     0.945640000000     0.603730000000     0.034178   
H125     H      0.463570000000     0.054560000000     0.856690000000     0.0459917  
H126     H      0.558440000000     0.982790000000     0.654960000000     0.0343401  
H127     H      0.444770000000     0.982680000000     0.652820000000     0.0344329  
H128     H      0.560330000000     0.986270000000     0.588660000000     0.0372524  
H129     H      0.561460000000     0.012910000000     0.872590000000    -0.00192719 
H130     H      0.501870000000     0.951470000000     0.776420000000     0.03994    
H131     H      0.448810000000     0.013510000000     0.876480000000     0.0353354  
H132     H      0.500670000000     0.047510000000     0.685320000000     0.0409117  
H133     H      0.470990000000     0.978080000000     0.827510000000     0.0355025  
H134     H      0.445480000000     0.986230000000     0.586410000000     0.0375647  
H135     H      0.535270000000     0.021230000000     0.637230000000     0.0380891  
H136     H      0.468520000000     0.021180000000     0.635980000000     0.0378706  
H137     H      0.501200000000     0.063420000000     0.748600000000     0.049058   
H138     H      0.535920000000     0.978140000000     0.825640000000     0.0447913  
H139     H      0.540720000000     0.945690000000     0.605240000000     0.0340293  
H140     H      0.573690000000     0.064290000000     0.849470000000     0.13727    
H141     H      0.510750000000     0.972930000000     0.245030000000     0.0461073  
H142     H      0.571990000000     0.054970000000     0.153520000000     0.0363917  
H143     H      0.458340000000     0.060410000000     0.154370000000     0.0503852  
H144     H      0.547870000000     0.977170000000     0.353460000000     0.0402877  
H145     H      0.554500000000     0.094050000000     0.105080000000     0.0456909  
H146     H      0.452740000000     0.018670000000     0.303690000000     0.0358038  
H147     H      0.566240000000     0.018210000000     0.307790000000     0.0350015  
H148     H      0.450260000000     0.017750000000     0.370660000000     0.0423293  
H149     H      0.457310000000     0.059080000000     0.087940000000     0.00276808 
H150     H      0.513440000000     0.991460000000     0.182540000000     0.0423266  
H151     H      0.572080000000     0.053180000000     0.086950000000     0.038157   
H152     H      0.511720000000     0.083620000000     0.277480000000     0.0420882  
H153     H      0.546780000000     0.018030000000     0.135370000000     0.0391862  
H154     H      0.563870000000     0.017210000000     0.374420000000     0.0383303  
H155     H      0.476170000000     0.055160000000     0.324780000000     0.0395554  
H156     H      0.541600000000     0.054830000000     0.327270000000     0.0385697  
H157     H      0.514730000000     0.102200000000     0.214920000000     0.0477888  
H158     H      0.479680000000     0.021620000000     0.135400000000     0.0494572  
H159     H      0.467270000000     0.977600000000     0.350720000000     0.0396565  
H160     H      0.453560000000     0.112110000000     0.111010000000     0.138451   
H161     H      0.688180000000     0.449560000000     0.433750000000     0.0436523  
H162     H      0.812010000000     0.409950000000     0.483170000000     0.0345802  
H163     H      0.811920000000     0.508070000000     0.425800000000     0.0494663  
H164     H      0.596810000000     0.444700000000     0.501990000000     0.0375875  
H165     H      0.873950000000     0.429550000000     0.477800000000     0.0529495  
H166     H      0.659820000000     0.532630000000     0.475820000000     0.031418   
H167     H      0.658320000000     0.427060000000     0.516890000000     0.0314564  
H168     H      0.603130000000     0.545860000000     0.508310000000     0.0356809  
H169     H      0.867700000000     0.486030000000     0.391800000000    -0.00450483 
H170     H      0.751370000000     0.441190000000     0.417850000000     0.0399653  
H171     H      0.868100000000     0.391010000000     0.449460000000     0.0308948  
H172     H      0.719880000000     0.497470000000     0.533150000000     0.0410494  
H173     H      0.806440000000     0.408230000000     0.435520000000     0.0356435  
H174     H      0.601880000000     0.441220000000     0.549560000000     0.0354858  
H175     H      0.663700000000     0.526590000000     0.523320000000     0.0349528  
H176     H      0.663110000000     0.463890000000     0.547630000000     0.0352669  
H177     H      0.783230000000     0.489920000000     0.516850000000     0.0465151  
H178     H      0.806490000000     0.467080000000     0.401200000000     0.0447146  
H179     H      0.598170000000     0.510750000000     0.475970000000     0.0395607  
H180     H      0.877720000000     0.523340000000     0.435400000000     0.138935   
H181     H      0.305160000000     0.561670000000     0.481620000000     0.0437382  
H182     H      0.192490000000     0.562900000000     0.561720000000     0.0348342  
H183     H      0.191080000000     0.484430000000     0.479820000000     0.0495542  
H184     H      0.411590000000     0.554340000000     0.529780000000     0.038758   
H185     H      0.133670000000     0.534670000000     0.563140000000     0.0490891  
H186     H      0.350070000000     0.479200000000     0.479500000000     0.0322808  
H187     H      0.354420000000     0.556360000000     0.562070000000     0.0320271  
H188     H      0.413350000000     0.461380000000     0.493250000000     0.0328482  
H189     H      0.126220000000     0.502710000000     0.465630000000    -0.00451094 
H190     H      0.239380000000     0.563370000000     0.482260000000     0.0401672  
H191     H      0.127990000000     0.579380000000     0.545850000000     0.0335385  
H192     H      0.303770000000     0.478010000000     0.560570000000     0.0412758  
H193     H      0.186250000000     0.577760000000     0.516480000000     0.0356358  
H194     H      0.417890000000     0.538640000000     0.574650000000     0.033231   
H195     H      0.355660000000     0.462890000000     0.524370000000     0.0363029  
H196     H      0.358530000000     0.509850000000     0.574600000000     0.0361637  
H197     H      0.237970000000     0.479730000000     0.561230000000     0.0476032  
H198     H      0.185040000000     0.530640000000     0.467540000000     0.0452759  
H199     H      0.409450000000     0.507800000000     0.480590000000     0.0364571  
H200     H      0.132540000000     0.454950000000     0.498670000000     0.138684   
H201     H      0.787550000000     0.496970000000     0.021450000000     0.0440327  
H202     H      0.672380000000     0.563180000000     0.981330000000     0.0329369  
H203     H      0.675910000000     0.540390000000     0.091710000000     0.0468327  
H204     H      0.891410000000     0.541670000000     0.988060000000     0.0402216  
H205     H      0.614840000000     0.579160000000     0.008630000000     0.0492147  
H206     H      0.837140000000     0.543900000000     0.086290000000     0.0334028  
H207     H      0.832310000000     0.566560000000     0.975630000000     0.033731   
H208     H      0.901740000000     0.566480000000     0.087020000000     0.033153   
H209     H      0.612260000000     0.517910000000     0.088340000000    -0.00523283 
H210     H      0.721780000000     0.496510000000     0.023940000000     0.0403833  
H211     H      0.609060000000     0.541770000000     0.979160000000     0.0322388  
H212     H      0.787590000000     0.610140000000     0.043940000000     0.0407909  
H213     H      0.667610000000     0.517030000000     0.994840000000     0.0354106  
H214     H      0.897000000000     0.588680000000     0.978370000000     0.0356492  
H215     H      0.842420000000     0.589850000000     0.072400000000     0.0360189  
H216     H      0.839540000000     0.603500000000     0.005720000000     0.0362415  
H217     H      0.721820000000     0.609690000000     0.046410000000     0.0465616  
H218     H      0.669690000000     0.503370000000     0.061640000000     0.0447772  
H219     H      0.894580000000     0.526880000000     0.060420000000     0.0383323  
H220     H      0.618160000000     0.574020000000     0.104380000000     0.139587   
H221     H      0.317820000000     0.592190000000     0.097700000000     0.0441628  
H222     H      0.199220000000     0.520460000000     0.098620000000     0.0364332  
H223     H      0.205410000000     0.601960000000     0.019910000000     0.0495038  
H224     H      0.420400000000     0.537080000000     0.091180000000     0.0404798  
H225     H      0.141010000000     0.522910000000     0.069730000000     0.0520287  
H226     H      0.362460000000     0.590930000000     0.016000000000     0.0322459  
H227     H      0.361610000000     0.507700000000     0.092640000000     0.03226    
H228     H      0.424930000000     0.573590000000     0.998730000000     0.0338738  
H229     H      0.141470000000     0.621180000000     0.036660000000    -0.00500287 
H230     H      0.252160000000     0.596360000000     0.098890000000     0.0404042  
H231     H      0.135860000000     0.541470000000     0.113680000000     0.046003   
H232     H      0.311230000000     0.512350000000     0.015200000000     0.0418549  
H233     H      0.196150000000     0.566560000000     0.112690000000     0.0364284  
H234     H      0.424480000000     0.491630000000     0.075620000000     0.0332078  
H235     H      0.365630000000     0.545440000000     0.000010000000     0.0365857  
H236     H      0.365390000000     0.495040000000     0.046430000000     0.0366803  
H237     H      0.245530000000     0.516490000000     0.016410000000     0.0486015  
H238     H      0.199410000000     0.615090000000     0.065600000000     0.0450524  
H239     H      0.421450000000     0.586750000000     0.044760000000     0.0378937  
H240     H      0.145660000000     0.587370000000     0.989610000000     0.136044   
H241     H      0.945270000000     0.496940000000     0.745440000000     0.044362   
H242     H      0.028000000000     0.552820000000     0.838530000000     0.0358536  
H243     H      0.026590000000     0.439300000000     0.838180000000     0.0503626  
H244     H      0.953340000000     0.536130000000     0.637790000000     0.0356058  
H245     H      0.066320000000     0.534360000000     0.886880000000     0.0456336  
H246     H      0.990930000000     0.439230000000     0.686630000000     0.0348564  
H247     H      0.993520000000     0.552640000000     0.685040000000     0.0347275  
H248     H      0.991610000000     0.438090000000     0.619880000000     0.0375868  
H249     H      0.024210000000     0.439120000000     0.905050000000     0.00159225 
H250     H      0.962370000000     0.496900000000     0.808430000000     0.0401476  
H251     H      0.026050000000     0.553200000000     0.905040000000     0.038461   
H252     H      0.056870000000     0.495390000000     0.715640000000     0.0416637  
H253     H      0.989870000000     0.529510000000     0.856830000000     0.0369342  
H254     H      0.994280000000     0.551810000000     0.618250000000     0.0376352  
H255     H      0.028660000000     0.462070000000     0.667020000000     0.0383357  
H256     H      0.030150000000     0.527570000000     0.666090000000     0.0380237  
H257     H      0.074000000000     0.495450000000     0.778670000000     0.0481729  
H258     H      0.989360000000     0.463400000000     0.856950000000     0.0460305  
H259     H      0.951480000000     0.456240000000     0.638970000000     0.0360236  
H260     H      0.076730000000     0.429370000000     0.882450000000     0.139666   
H261     H      0.929460000000     0.490620000000     0.274500000000     0.0440011  
H262     H      0.021440000000     0.438800000000     0.187730000000     0.0357394  
H263     H      0.015140000000     0.552180000000     0.188020000000     0.0500963  
H264     H      0.931100000000     0.453100000000     0.382870000000     0.0442844  
H265     H      0.062370000000     0.459430000000     0.142340000000     0.0434687  
H266     H      0.967580000000     0.549130000000     0.337430000000     0.0344669  
H267     H      0.973900000000     0.435720000000     0.337720000000     0.0351318  
H268     H      0.964190000000     0.549890000000     0.403710000000     0.0398891  
H269     H      0.017410000000     0.552470000000     0.121180000000    -0.0005714  
H270     H      0.951210000000     0.492070000000     0.212940000000     0.0397981  
H271     H      0.024600000000     0.438500000000     0.121380000000     0.0355085  
H272     H      0.038420000000     0.495800000000     0.312440000000     0.041152   
H273     H      0.983740000000     0.460450000000     0.166730000000     0.0369479  
H274     H      0.970230000000     0.434910000000     0.404010000000     0.0420803  
H275     H      0.005610000000     0.527970000000     0.358360000000     0.0380768  
H276     H      0.009270000000     0.461070000000     0.358650000000     0.0381283  
H277     H      0.060170000000     0.497230000000     0.250870000000     0.0472741  
H278     H      0.980320000000     0.526650000000     0.166700000000     0.0455024  
H279     H      0.927040000000     0.527620000000     0.382980000000     0.0354812  
H280     H      0.067940000000     0.564340000000     0.146630000000     0.139527   
H281     H      0.043780000000     0.695610000000     0.559830000000     0.0439452  
H282     H      0.969040000000     0.813120000000     0.556370000000     0.0352133  
H283     H      0.050900000000     0.804590000000     0.478130000000     0.0499163  
H284     H      0.990150000000     0.592440000000     0.562300000000     0.0379479  
H285     H      0.970960000000     0.869790000000     0.524450000000     0.053959   
H286     H      0.035780000000     0.646390000000     0.478910000000     0.0334003  
H287     H      0.961460000000     0.651670000000     0.564050000000     0.0325796  
H288     H      0.016930000000     0.583140000000     0.467120000000     0.0349109  
H289     H      0.069690000000     0.869280000000     0.492760000000    -0.00178725 
H290     H      0.047620000000     0.761160000000     0.557500000000     0.0399343  
H291     H      0.988730000000     0.877310000000     0.568420000000     0.0425878  
H292     H      0.958950000000     0.697730000000     0.482030000000     0.041366   
H293     H      0.015120000000     0.817470000000     0.570410000000     0.0354001  
H294     H      0.943200000000     0.588220000000     0.551720000000     0.0341462  
H295     H      0.988750000000     0.642530000000     0.468070000000     0.0362783  
H296     H      0.943630000000     0.645850000000     0.519770000000     0.0370435  
H297     H      0.963230000000     0.763290000000     0.479210000000     0.0474963  
H298     H      0.064000000000     0.812560000000     0.523520000000     0.0447315  
H299     H      0.034630000000     0.589370000000     0.511330000000     0.0425814  
H300     H      0.036370000000     0.862750000000     0.445500000000     0.139594   
H301     H      0.924060000000     0.284080000000     0.563240000000     0.0439963  
H302     H      0.014490000000     0.179850000000     0.564800000000     0.0350731  
H303     H      0.936780000000     0.172930000000     0.482360000000     0.0496798  
H304     H      0.967690000000     0.394460000000     0.565590000000     0.0366296  
H305     H      0.023250000000     0.122460000000     0.535340000000     0.0514568  
H306     H      0.924810000000     0.335840000000     0.484110000000     0.0320495  
H307     H      0.000930000000     0.337510000000     0.567830000000     0.033052   
H308     H      0.938610000000     0.400270000000     0.471160000000     0.0359318  
H309     H      0.927920000000     0.106580000000     0.498090000000    -0.0036988  
H310     H      0.929940000000     0.218610000000     0.561910000000     0.0402959  
H311     H      0.004120000000     0.113760000000     0.578560000000     0.032089   
H312     H      0.008480000000     0.293120000000     0.485440000000     0.0416107  
H313     H      0.969000000000     0.168720000000     0.576850000000     0.0357821  
H314     H      0.014090000000     0.401810000000     0.554230000000     0.0352416  
H315     H      0.970970000000     0.343260000000     0.471650000000     0.0368963  
H316     H      0.018020000000     0.344320000000     0.523420000000     0.0378748  
H317     H      0.014320000000     0.227720000000     0.484120000000     0.0475566  
H318     H      0.922550000000     0.164270000000     0.527300000000     0.0454989  
H319     H      0.922510000000     0.393440000000     0.515840000000     0.0374784  
H320     H      0.962930000000     0.117290000000     0.452720000000     0.139763   
H321     H      0.776540000000     0.031590000000     0.493620000000     0.044371   
H322     H      0.662580000000     0.956680000000     0.525100000000     0.0327993  
H323     H      0.663220000000     0.002790000000     0.422100000000     0.0467245  
H324     H      0.884120000000     0.984580000000     0.504510000000     0.0439466  
H325     H      0.604150000000     0.946490000000     0.496960000000     0.0490524  
H326     H      0.818540000000     0.002450000000     0.414990000000     0.0345455  
H327     H      0.827300000000     0.955140000000     0.517440000000     0.0346016  
H328     H      0.882890000000     0.983350000000     0.401990000000     0.0403061  
H329     H      0.599750000000     0.023120000000     0.431440000000    -0.00393837 
H330     H      0.710810000000     0.030910000000     0.496430000000     0.0402943  
H331     H      0.599400000000     0.977180000000     0.533440000000     0.0317498  
H332     H      0.775530000000     0.926430000000     0.446360000000     0.041297   
H333     H      0.657480000000     0.004630000000     0.521720000000     0.0350554  
H334     H      0.891480000000     0.936850000000     0.502550000000     0.0393989  
H335     H      0.826170000000     0.954790000000     0.417450000000     0.037444   
H336     H      0.831410000000     0.926300000000     0.479140000000     0.0370323  
H337     H      0.709800000000     0.925800000000     0.449070000000     0.0465418  
H338     H      0.657490000000     0.032260000000     0.459620000000     0.0447907  
H339     H      0.878290000000     0.015570000000     0.437480000000     0.0428097  
H340     H      0.606040000000     0.971590000000     0.403950000000     0.139144   
H341     H      0.305320000000     0.009680000000     0.561480000000     0.0437363  
H342     H      0.194520000000     0.935240000000     0.527570000000     0.0347286  
H343     H      0.186960000000     0.045360000000     0.499860000000     0.0497551  
H344     H      0.410350000000     0.970830000000     0.528900000000     0.0394747  
H345     H      0.134480000000     0.944910000000     0.504350000000     0.050516   
H346     H      0.348140000000     0.051810000000     0.489430000000     0.0322282  
H347     H      0.352950000000     0.941650000000     0.516040000000     0.0316312  
H348     H      0.410540000000     0.048100000000     0.465200000000     0.0371875  
H349     H      0.122720000000     0.045790000000     0.524680000000     0.00298892 
H350     H      0.239650000000     0.006780000000     0.564920000000     0.0401874  
H351     H      0.130610000000     0.938010000000     0.551660000000     0.0355901  
H352     H      0.300630000000     0.981100000000     0.450520000000     0.0414281  
H353     H      0.187890000000     0.967460000000     0.562730000000     0.035422   
H354     H      0.415690000000     0.939070000000     0.493310000000     0.0339389  
H355     H      0.352680000000     0.020140000000     0.453430000000     0.0365405  
H356     H      0.356060000000     0.953460000000     0.469560000000     0.0361675  
H357     H      0.234980000000     0.978080000000     0.454010000000     0.0477507  
H358     H      0.183020000000     0.033170000000     0.546030000000     0.0457038  
H359     H      0.408350000000     0.037400000000     0.511920000000     0.0364667  
H360     H      0.128250000000     0.040350000000     0.466820000000     0.13841    
H361     H      0.064440000000     0.704430000000     0.071970000000     0.0446735  
H362     H      0.976530000000     0.810640000000     0.059710000000     0.0353669  
H363     H      0.065750000000     0.814300000000     0.989410000000     0.0494663  
H364     H      0.022160000000     0.594470000000     0.067320000000     0.0417755  
H365     H      0.973580000000     0.867590000000     0.028350000000     0.0515957  
H366     H      0.075560000000     0.654270000000     0.993660000000     0.0324304  
H367     H      0.987190000000     0.650260000000     0.064480000000     0.0332525  
H368     H      0.065610000000     0.589660000000     0.978500000000     0.0391706  
H369     H      0.073750000000     0.880790000000     0.005180000000     0.00140909 
H370     H      0.059720000000     0.769950000000     0.069500000000     0.0401101  
H371     H      0.986310000000     0.876740000000     0.073740000000     0.0304754  
H372     H      0.991780000000     0.695890000000     0.983230000000     0.041637   
H373     H      0.020030000000     0.821030000000     0.078030000000     0.0354386  
H374     H      0.978300000000     0.585560000000     0.049310000000     0.0389271  
H375     H      0.032010000000     0.645970000000     0.974320000000     0.0359629  
H376     H      0.977720000000     0.643290000000     0.017890000000     0.0384936  
H377     H      0.987130000000     0.761380000000     0.980720000000     0.0477081  
H378     H      0.073320000000     0.823540000000     0.035800000000     0.0452495  
H379     H      0.074130000000     0.596610000000     0.025200000000     0.0518432  
H380     H      0.045580000000     0.869400000000     0.955350000000     0.138117   
H381     H      0.967720000000     0.290180000000     0.062770000000     0.0443201  
H382     H      0.048250000000     0.176450000000     0.064450000000     0.0359672  
H383     H      0.971480000000     0.181080000000     0.981000000000     0.0508707  
H384     H      0.015530000000     0.396800000000     0.065840000000     0.0365984  
H385     H      0.050860000000     0.119380000000     0.033260000000     0.0525692  
H386     H      0.975630000000     0.338800000000     0.982010000000     0.0330479  
H387     H      0.047350000000     0.339220000000     0.069480000000     0.0330928  
H388     H      0.990900000000     0.402930000000     0.969860000000     0.0338241  
H389     H      0.954680000000     0.115820000000     0.994650000000     0.000441821
H390     H      0.967890000000     0.224510000000     0.061030000000     0.0407828  
H391     H      0.030130000000     0.111660000000     0.075940000000     0.0333741  
H392     H      0.055770000000     0.292400000000     0.988560000000     0.0422146  
H393     H      0.001590000000     0.170260000000     0.075580000000     0.0366164  
H394     H      0.062480000000     0.403330000000     0.056400000000     0.035313   
H395     H      0.022650000000     0.345320000000     0.972490000000     0.0372255  
H396     H      0.066310000000     0.345360000000     0.025710000000     0.0382203  
H397     H      0.055650000000     0.226690000000     0.986460000000     0.0482396  
H398     H      0.955710000000     0.172690000000     0.025480000000     0.0466154  
H399     H      0.972440000000     0.396190000000     0.013670000000     0.039623   
H400     H      0.990960000000     0.123390000000     0.949810000000     0.142602   
H401     H      0.706980000000     0.962190000000     0.931590000000     0.0438643  
H402     H      0.826320000000     0.978500000000     0.998360000000     0.0364208  
H403     H      0.822400000000     0.029910000000     0.897560000000     0.0488868  
H404     H      0.608220000000     0.984360000000     0.986720000000     0.0386063  
H405     H      0.885680000000     0.002750000000     0.986950000000     0.0512488  
H406     H      0.662520000000     0.043080000000     0.912250000000     0.0320895  
H407     H      0.668270000000     0.991100000000     0.012310000000     0.0321927  
H408     H      0.600450000000     0.064110000000     0.927000000000     0.0375772  
H409     H      0.884990000000     0.004440000000     0.884050000000     0.00205674 
H410     H      0.772380000000     0.957910000000     0.926190000000     0.0405427  
H411     H      0.888480000000     0.954690000000     0.982960000000     0.0369032  
H412     H      0.717960000000     0.064350000000     0.983750000000     0.0415696  
H413     H      0.827900000000     0.950960000000     0.958960000000     0.0369324  
H414     H      0.605960000000     0.011810000000     0.026090000000     0.0346018  
H415     H      0.661150000000     0.070640000000     0.951710000000     0.0365773  
H416     H      0.664410000000     0.039320000000     0.011980000000     0.0365146  
H417     H      0.783490000000     0.060090000000     0.978370000000     0.0475886  
H418     H      0.825820000000     0.981830000000     0.898710000000     0.0457263  
H419     H      0.604400000000     0.015960000000     0.926690000000     0.0385018  
H420     H      0.882940000000     0.060210000000     0.902100000000     0.136256   
H421     H      0.303890000000     0.961420000000     0.972870000000     0.0437011  
H422     H      0.186440000000     0.032930000000     0.958760000000     0.0364256  
H423     H      0.205360000000     0.993930000000     0.063310000000     0.0493628  
H424     H      0.408520000000     0.010270000000     0.940730000000     0.0356205  
H425     H      0.133540000000     0.046910000000     0.994010000000     0.0517961  
H426     H      0.360540000000     0.993680000000     0.037910000000     0.0319542  
H427     H      0.348660000000     0.037430000000     0.934550000000     0.033212   
H428     H      0.424520000000     0.012980000000     0.038460000000     0.0371911  
H429     H      0.139750000000     0.972730000000     0.065540000000    -0.000136569
H430     H      0.239000000000     0.961160000000     0.983770000000     0.0402998  
H431     H      0.121800000000     0.011520000000     0.963430000000     0.0380304  
H432     H      0.310130000000     0.069560000000     0.012480000000     0.041655   
H433     H      0.181490000000     0.985530000000     0.966730000000     0.0364729  
H434     H      0.412760000000     0.058180000000     0.936550000000     0.0355931  
H435     H      0.365400000000     0.041610000000     0.033600000000     0.03691    
H436     H      0.357680000000     0.068530000000     0.970180000000     0.0372152  
H437     H      0.245250000000     0.069360000000     0.023170000000     0.0478283  
H438     H      0.192680000000     0.962300000000     0.029420000000     0.0455915  
H439     H      0.414600000000     0.983360000000     0.001980000000     0.0401382  
H440     H      0.150400000000     0.023410000000     0.092210000000     0.135459   
H441     H      0.042180000000     0.045030000000     0.754700000000     0.0453395  
H442     H      0.981550000000     0.040160000000     0.630840000000     0.0365887  
H443     H      0.051980000000     0.953500000000     0.653240000000     0.0491891  
H444     H      0.974870000000     0.060670000000     0.849330000000     0.040523   
H445     H      0.986090000000     0.004200000000     0.576990000000     0.0417436  
H446     H      0.024380000000     0.968650000000     0.807160000000     0.0353665  
H447     H      0.954320000000     0.056310000000     0.787920000000     0.0341449  
H448     H      0.996800000000     0.961740000000     0.868820000000     0.0350244  
H449     H      0.079330000000     0.961320000000     0.591020000000     0.00236769 
H450     H      0.052470000000     0.037890000000     0.690620000000     0.0406998  
H451     H      0.009780000000     0.045580000000     0.569300000000     0.0421421  
H452     H      0.952760000000     0.972170000000     0.748540000000     0.0413404  
H453     H      0.029150000000     0.048860000000     0.631190000000     0.0360897  
H454     H      0.928180000000     0.047980000000     0.850020000000     0.0350389  
H455     H      0.976750000000     0.960100000000     0.807170000000     0.0376597  
H456     H      0.934570000000     0.012890000000     0.795640000000     0.0367277  
H457     H      0.963140000000     0.964930000000     0.684490000000     0.0471889  
H458     H      0.071300000000     0.996780000000     0.644420000000     0.0464351  
H459     H      0.020580000000     0.003270000000     0.861930000000     0.0308429  
H460     H      0.039500000000     0.918700000000     0.596670000000     0.140489   
H461     H      0.082320000000     0.996920000000     0.254390000000     0.0450158  
H462     H      0.045310000000     0.059120000000     0.137070000000     0.0355611  
H463     H      0.028040000000     0.946580000000     0.139180000000     0.0494626  
H464     H      0.041640000000     0.040550000000     0.355550000000     0.0427382  
H465     H      0.024950000000     0.041690000000     0.078060000000     0.0506707  
H466     H      0.011680000000     0.950070000000     0.295680000000     0.0351965  
H467     H      0.028290000000     0.062670000000     0.296000000000     0.0353317  
H468     H      0.983900000000     0.955020000000     0.357500000000     0.0360364  
H469     H      0.054950000000     0.942730000000     0.076400000000     0.00378996 
H470     H      0.087990000000     0.995710000000     0.189340000000     0.0403272  
H471     H      0.071910000000     0.052830000000     0.074820000000     0.0495207  
H472     H      0.968510000000     0.014260000000     0.244260000000     0.0414253  
H473     H      0.083860000000     0.030010000000     0.134440000000     0.037592   
H474     H      0.000280000000     0.065560000000     0.357860000000     0.0380843  
H475     H      0.972730000000     0.978630000000     0.298030000000     0.0370036  
H476     H      0.982740000000     0.046530000000     0.298260000000     0.0373328  
H477     H      0.974190000000     0.013060000000     0.179260000000     0.0485093  
H478     H      0.073370000000     0.962730000000     0.135240000000     0.0456596  
H479     H      0.030740000000     0.967010000000     0.355350000000     0.0394582  
H480     H      0.996080000000     0.943470000000     0.080310000000     0.147356   
N1       N      0.514780000000     0.510610000000     0.933660000000    -0.195834   
N2       N      0.514000000000     0.502270000000     0.858970000000    -0.100508   
N3       N      0.513230000000     0.525280000000     0.708930000000    -0.11341    
N4       N      0.511920000000     0.516940000000     0.634250000000    -0.180397   
N5       N      0.517330000000     0.547090000000     0.138670000000    -0.195094   
N6       N      0.516100000000     0.540840000000     0.213640000000    -0.100501   
N7       N      0.508230000000     0.484900000000     0.354790000000    -0.113532   
N8       N      0.506800000000     0.478690000000     0.429690000000    -0.182347   
N9       N      0.511420000000     0.894530000000     0.460880000000    -0.196024   
N10      N      0.513300000000     0.819140000000     0.461890000000    -0.10062    
N11      N      0.512020000000     0.674660000000     0.510030000000    -0.113256   
N12      N      0.509960000000     0.599850000000     0.517750000000    -0.18283    
N13      N      0.504050000000     0.101170000000     0.489330000000    -0.196977   
N14      N      0.501930000000     0.176030000000     0.497850000000    -0.100519   
N15      N      0.501500000000     0.318930000000     0.550730000000    -0.113535   
N16      N      0.503550000000     0.394270000000     0.553930000000    -0.182603   
N17      N      0.512670000000     0.935160000000     0.002010000000    -0.197052   
N18      N      0.514680000000     0.860630000000     0.014910000000    -0.100528   
N19      N      0.519340000000     0.708310000000     0.003260000000    -0.113298   
N20      N      0.519370000000     0.633730000000     0.015750000000    -0.180223   
N21      N      0.508910000000     0.141050000000     0.963370000000    -0.193529   
N22      N      0.509500000000     0.215870000000     0.974220000000    -0.100354   
N23      N      0.514660000000     0.352850000000     0.041300000000    -0.11327    
N24      N      0.516790000000     0.427560000000     0.052450000000    -0.180911   
N25      N      0.505530000000     0.023590000000     0.878650000000    -0.196428   
N26      N      0.502790000000     0.019420000000     0.803960000000    -0.100174   
N27      N      0.501520000000     0.979650000000     0.657610000000    -0.113384   
N28      N      0.503000000000     0.981210000000     0.582570000000    -0.183277   
N29      N      0.514780000000     0.060440000000     0.082800000000    -0.196579   
N30      N      0.515340000000     0.060410000000     0.157750000000    -0.10027    
N31      N      0.509620000000     0.014590000000     0.302120000000    -0.112486   
N32      N      0.506860000000     0.008510000000     0.376660000000    -0.179418   
N33      N      0.872000000000     0.440300000000     0.423210000000    -0.119162   
N34      N      0.809560000000     0.460930000000     0.457770000000    -0.102731   
N35      N      0.661810000000     0.478330000000     0.492640000000    -0.1174     
N36      N      0.597020000000     0.494010000000     0.530160000000    -0.2251     
N37      N      0.124040000000     0.538100000000     0.508390000000    -0.117689   
N38      N      0.195110000000     0.521440000000     0.522840000000    -0.102147   
N39      N      0.347990000000     0.519500000000     0.519440000000    -0.116783   
N40      N      0.419530000000     0.498180000000     0.535370000000    -0.228972   
N41      N      0.606130000000     0.528770000000     0.033860000000    -0.242807   
N42      N      0.678230000000     0.554230000000     0.036870000000    -0.10412    
N43      N      0.831120000000     0.552560000000     0.030570000000    -0.115017   
N44      N      0.902340000000     0.574390000000     0.031920000000    -0.102087   
N45      N      0.135320000000     0.578650000000     0.072000000000    -0.115072   
N46      N      0.205380000000     0.558740000000     0.057000000000    -0.102151   
N47      N      0.358020000000     0.551070000000     0.056160000000    -0.116742   
N48      N      0.428700000000     0.531110000000     0.035540000000    -0.227661   
N49      N      0.031710000000     0.495860000000     0.909690000000    -0.196258   
N50      N      0.030830000000     0.496040000000     0.834790000000    -0.100383   
N51      N      0.988370000000     0.496080000000     0.689370000000    -0.113147   
N52      N      0.984610000000     0.495080000000     0.614660000000    -0.181881   
N53      N      0.027510000000     0.496080000000     0.117050000000    -0.197206   
N54      N      0.021390000000     0.495640000000     0.191720000000    -0.100608   
N55      N      0.968240000000     0.492270000000     0.333640000000    -0.113594   
N56      N      0.963070000000     0.492180000000     0.408310000000    -0.179582   
N57      N      0.026660000000     0.876400000000     0.527340000000    -0.109473   
N58      N      0.007610000000     0.805580000000     0.515200000000    -0.102346   
N59      N      0.000460000000     0.653220000000     0.522830000000    -0.116729   
N60      N      0.978210000000     0.581810000000     0.508050000000    -0.227374   
N61      N      0.969160000000     0.107420000000     0.535440000000    -0.115021   
N62      N      0.977440000000     0.180000000000     0.521620000000    -0.102094   
N63      N      0.962040000000     0.331890000000     0.526820000000    -0.116438   
N64      N      0.978200000000     0.404640000000     0.510980000000    -0.229011   
N65      N      0.594800000000     0.000900000000     0.482550000000    -0.24457    
N66      N      0.666800000000     0.977260000000     0.472570000000    -0.104224   
N67      N      0.819440000000     0.981190000000     0.467620000000    -0.114979   
N68      N      0.890140000000     0.963180000000     0.453410000000    -0.0991937  
N69      N      0.123520000000     0.990870000000     0.534390000000    -0.110209   
N70      N      0.193880000000     0.989690000000     0.510540000000    -0.102222   
N71      N      0.346470000000     0.997160000000     0.505210000000    -0.117075   
N72      N      0.417490000000     0.993370000000     0.477320000000    -0.227234   
N73      N      0.027410000000     0.881510000000     0.036090000000    -0.114323   
N74      N      0.019500000000     0.808910000000     0.022360000000    -0.102056   
N75      N      0.032130000000     0.656910000000     0.030260000000    -0.116604   
N76      N      0.020400000000     0.583960000000     0.011770000000    -0.227034   
N77      N      0.995400000000     0.110620000000     0.032220000000    -0.112438   
N78      N      0.012160000000     0.182180000000     0.020860000000    -0.101962   
N79      N      0.009930000000     0.334710000000     0.027040000000    -0.116566   
N80      N      0.028410000000     0.407020000000     0.011740000000    -0.227281   
N81      N      0.890210000000     0.983090000000     0.934960000000    -0.110146   
N82      N      0.821370000000     0.007180000000     0.949590000000    -0.102171   
N83      N      0.669150000000     0.014630000000     0.960810000000    -0.117126   
N84      N      0.599190000000     0.039840000000     0.977710000000    -0.227492   
N85      N      0.127980000000     0.995940000000     0.016570000000    -0.108258   
N86      N      0.199350000000     0.016280000000     0.011450000000    -0.10204    
N87      N      0.350030000000     0.013950000000     0.986070000000    -0.116751   
N88      N      0.422390000000     0.038050000000     0.988080000000    -0.22921    
N89      N      0.042120000000     0.000460000000     0.577030000000    -0.123859   
N90      N      0.013920000000     0.995360000000     0.645190000000    -0.102972   
N91      N      0.991990000000     0.013850000000     0.794190000000    -0.114737   
N92      N      0.964600000000     0.007220000000     0.862570000000    -0.10676    
N93      N      0.059800000000     0.998140000000     0.072400000000    -0.119715   
N94      N      0.033400000000     0.003430000000     0.141170000000    -0.1024     
N95      N      0.022950000000     0.005960000000     0.292510000000    -0.114315   
N96      N      0.995010000000     0.009850000000     0.360880000000    -0.1189     
O1       O      0.057390000000     0.960110000000     0.990850000000    -0.362857   
O2       O      0.972190000000     0.025510000000     0.007040000000    -0.368022   
O3       O      0.981900000000     0.949620000000     0.000400000000    -0.365064   
O4       O      0.047620000000     0.036090000000     0.997410000000    -0.366339   
O5       O      0.039570000000     0.040180000000     0.938430000000    -0.37274    
O6       O      0.973760000000     0.953800000000     0.941440000000    -0.365479   
O7       O      0.964140000000     0.029750000000     0.948050000000    -0.358103   
O8       O      0.049310000000     0.964290000000     0.931880000000    -0.375803   
O9       O      0.038850000000     0.037070000000     0.498640000000    -0.365097   
O10      O      0.979330000000     0.946220000000     0.499780000000    -0.367987   
O11      O      0.054330000000     0.961800000000     0.495240000000    -0.356888   
O12      O      0.963770000000     0.021310000000     0.503160000000    -0.372992   
O13      O      0.959730000000     0.023140000000     0.443650000000    -0.370524   
O14      O      0.050460000000     0.963880000000     0.435720000000    -0.372116   
O15      O      0.975490000000     0.948010000000     0.440250000000    -0.370438   
O16      O      0.034750000000     0.039040000000     0.439160000000    -0.370403   
O17      O      0.026070000000     0.466370000000     0.063970000000    -0.48631    
O18      O      0.027520000000     0.466410000000     0.962740000000    -0.482467   
O19      O      0.076920000000     0.467120000000     0.014430000000    -0.45157    
O20      O      0.974510000000     0.464170000000     0.013320000000    -0.462853   
O21      O      0.972880000000     0.523480000000     0.012190000000    -0.457377   
O22      O      0.075250000000     0.526600000000     0.014650000000    -0.442679   
O23      O      0.026920000000     0.525390000000     0.962650000000    -0.484881   
O24      O      0.024640000000     0.525370000000     0.063820000000    -0.48364    
O25      O      0.970940000000     0.463280000000     0.461260000000    -0.481468   
O26      O      0.981260000000     0.464840000000     0.562000000000    -0.483958   
O27      O      0.926320000000     0.463700000000     0.517820000000    -0.455748   
O28      O      0.028120000000     0.462140000000     0.506930000000    -0.460147   
O29      O      0.028970000000     0.521450000000     0.505660000000    -0.461201   
O30      O      0.927230000000     0.523240000000     0.517330000000    -0.45041    
O31      O      0.982960000000     0.523850000000     0.561110000000    -0.484098   
O32      O      0.970970000000     0.522240000000     0.460570000000    -0.483423   
O33      O      0.483870000000     0.048750000000     0.031820000000    -0.488614   
O34      O      0.477990000000     0.029510000000     0.932640000000    -0.487731   
O35      O      0.482110000000     0.987230000000     0.991490000000    -0.487599   
O36      O      0.480060000000     0.087830000000     0.972880000000    -0.476317   
O37      O      0.539180000000     0.088470000000     0.971650000000    -0.479126   
O38      O      0.541090000000     0.988010000000     0.989940000000    -0.49079    
O39      O      0.537010000000     0.029650000000     0.930420000000    -0.484988   
O40      O      0.542830000000     0.048040000000     0.030110000000    -0.483546   
O41      O      0.475780000000     0.003250000000     0.428820000000    -0.476459   
O42      O      0.474600000000     0.989410000000     0.529390000000    -0.493098   
O43      O      0.476220000000     0.046880000000     0.484820000000    -0.48579    
O44      O      0.479960000000     0.946110000000     0.470600000000    -0.48645    
O45      O      0.538990000000     0.947810000000     0.472370000000    -0.478405   
O46      O      0.535260000000     0.048650000000     0.486020000000    -0.490678   
O47      O      0.533560000000     0.990470000000     0.530700000000    -0.492363   
O48      O      0.534830000000     0.004040000000     0.430440000000    -0.475343   
O49      O      0.488130000000     0.481090000000     0.044690000000    -0.482146   
O50      O      0.489450000000     0.581430000000     0.026290000000    -0.485666   
O51      O      0.486040000000     0.522130000000     0.986120000000    -0.481008   
O52      O      0.487560000000     0.540920000000     0.085870000000    -0.486827   
O53      O      0.546480000000     0.537560000000     0.085910000000    -0.4741     
O54      O      0.545070000000     0.520900000000     0.985600000000    -0.483978   
O55      O      0.548480000000     0.581020000000     0.027220000000    -0.475613   
O56      O      0.547230000000     0.479970000000     0.043680000000    -0.47983    
O57      O      0.475930000000     0.447380000000     0.541600000000    -0.48739    
O58      O      0.478850000000     0.547670000000     0.524070000000    -0.489838   
O59      O      0.478060000000     0.489720000000     0.482350000000    -0.484437   
O60      O      0.481240000000     0.506980000000     0.582500000000    -0.479994   
O61      O      0.540370000000     0.504730000000     0.581760000000    -0.477154   
O62      O      0.536890000000     0.485220000000     0.482200000000    -0.490296   
O63      O      0.537870000000     0.545780000000     0.524230000000    -0.485796   
O64      O      0.534900000000     0.445670000000     0.543160000000    -0.48583    
O65      O      0.473100000000     0.467150000000     0.916020000000    -0.276052   
O66      O      0.482510000000     0.592100000000     0.165000000000    -0.276471   
O67      O      0.552230000000     0.871990000000     0.419120000000    -0.27406    
O68      O      0.462090000000     0.127110000000     0.450760000000    -0.276127   
O69      O      0.471630000000     0.919030000000     0.046390000000    -0.277492   
O70      O      0.469050000000     0.170390000000     0.925000000000    -0.274554   
O71      O      0.547350000000     0.062600000000     0.852880000000    -0.272857   
O72      O      0.479130000000     0.106360000000     0.106350000000    -0.277929   
O73      O      0.878510000000     0.498350000000     0.444330000000    -0.274253   
O74      O      0.130650000000     0.476540000000     0.513950000000    -0.277551   
O75      O      0.614360000000     0.572390000000     0.078310000000    -0.277698   
O76      O      0.142890000000     0.572110000000     0.011040000000    -0.270381   
O77      O      0.073670000000     0.455480000000     0.886400000000    -0.274457   
O78      O      0.066090000000     0.538050000000     0.143160000000    -0.278809   
O79      O      0.020910000000     0.866560000000     0.466640000000    -0.273406   
O80      O      0.977320000000     0.116430000000     0.474900000000    -0.273615   
O81      O      0.602410000000     0.967750000000     0.429810000000    -0.273851   
O82      O      0.127070000000     0.016410000000     0.478230000000    -0.270676   
O83      O      0.028150000000     0.871510000000     0.975180000000    -0.271787   
O84      O      0.005070000000     0.120560000000     0.972010000000    -0.273774   
O85      O      0.886100000000     0.043890000000     0.922680000000    -0.268762   
O86      O      0.144400000000     0.027970000000     0.066890000000    -0.273345   
O87      O      0.027650000000     0.941300000000     0.589280000000    -0.277432   
O88      O      0.005580000000     0.968030000000     0.076870000000    -0.293011   


