data_structure

_audit_creation_method RASPA-1.0
_audit_creation_date 2023-6-5
_audit_author_name 'Poobodin Mano'

_cell_length_a    60.3513
_cell_length_b    60.5699
_cell_length_c    37.368
_cell_angle_alpha 89.9444
_cell_angle_beta  90.0554
_cell_angle_gamma 119.918
_cell_volume      118395

_symmetry_cell_setting          triclinic
_symmetry_space_group_name_Hall 'P 1'
_symmetry_space_group_name_H-M  'P 1'
_symmetry_Int_Tables_number     1

_symmetry_equiv_pos_as_xyz 'x,y,z'

loop_
_atom_site_label
_atom_site_type_symbol
_atom_site_fract_x
_atom_site_fract_y
_atom_site_fract_z
_atom_site_charge
C1       C      0.923750000000     0.724080000000     0.683640000000     0.398741   
C2       C      0.825350000000     0.668700000000     0.648140000000     0.399721   
C3       C      0.862100000000     0.692140000000     0.734010000000     0.400956   
C4       C      0.887620000000     0.701180000000     0.596100000000     0.400727   
C5       C      0.176000000000     0.850130000000     0.798700000000     0.400179   
C6       C      0.277620000000     0.895650000000     0.795850000000     0.402289   
C7       C      0.226140000000     0.876140000000     0.726130000000     0.403077   
C8       C      0.228160000000     0.869970000000     0.868090000000     0.400544   
C9       C      0.590940000000     0.060230000000     0.057600000000     0.399732   
C10      C      0.504830000000     0.013280000000     0.981600000000     0.399974   
C11      C      0.522090000000     0.021150000000     0.081690000000     0.403108   
C12      C      0.573260000000     0.051900000000     0.958640000000     0.400365   
C13      C      0.225990000000     0.373710000000     0.354910000000     0.399118   
C14      C      0.127250000000     0.327980000000     0.319850000000     0.400533   
C15      C      0.164550000000     0.345630000000     0.406320000000     0.402376   
C16      C      0.187970000000     0.355930000000     0.267510000000     0.398993   
C17      C      0.837430000000     0.186380000000     0.162000000000     0.403927   
C18      C      0.930920000000     0.226510000000     0.106300000000     0.403025   
C19      C      0.863720000000     0.194770000000     0.068640000000     0.401229   
C20      C      0.904380000000     0.218010000000     0.199210000000     0.402917   
C21      C      0.579130000000     0.539800000000     0.501870000000     0.398958   
C22      C      0.486210000000     0.493180000000     0.443330000000     0.398134   
C23      C      0.512420000000     0.502660000000     0.537040000000     0.403122   
C24      C      0.553800000000     0.530520000000     0.407390000000     0.40194    
C25      C      0.251310000000     0.327620000000     0.835990000000     0.402494   
C26      C      0.198970000000     0.376340000000     0.817890000000     0.39918    
C27      C      0.227740000000     0.347600000000     0.756590000000     0.399396   
C28      C      0.222650000000     0.356330000000     0.897720000000     0.401645   
C29      C      0.327860000000     0.238980000000     0.586600000000     0.401032   
C30      C      0.379380000000     0.189050000000     0.598470000000     0.399805   
C31      C      0.351690000000     0.217020000000     0.662680000000     0.39999    
C32      C      0.355170000000     0.210670000000     0.520770000000     0.400421   
C33      C      0.051610000000     0.482760000000     0.913310000000     0.39992    
C34      C      0.998870000000     0.516870000000     0.986430000000     0.399441   
C35      C      0.008600000000     0.507910000000     0.887700000000     0.4037     
C36      C      0.041850000000     0.492000000000     0.011850000000     0.403941   
C37      C      0.697940000000     0.895340000000     0.381590000000     0.398407   
C38      C      0.738210000000     0.838740000000     0.339730000000     0.399111   
C39      C      0.719480000000     0.854490000000     0.427740000000     0.401284   
C40      C      0.716620000000     0.880250000000     0.292050000000     0.399253   
C41      C      0.877720000000     0.638480000000     0.142620000000     0.398701   
C42      C      0.837690000000     0.693360000000     0.192680000000     0.397955   
C43      C      0.847700000000     0.674000000000     0.100500000000     0.399525   
C44      C      0.867340000000     0.657930000000     0.234110000000     0.399684   
C45      C      0.576690000000     0.024020000000     0.511360000000     0.399751   
C46      C      0.520140000000     0.068240000000     0.529850000000     0.398054   
C47      C      0.540180000000     0.043420000000     0.449640000000     0.398093   
C48      C      0.557400000000     0.048620000000     0.590230000000     0.399275   
C49      C      0.328950000000     0.121400000000     0.099380000000     0.399473   
C50      C      0.371530000000     0.218330000000     0.057640000000     0.399081   
C51      C      0.351880000000     0.183680000000     0.147740000000     0.398526   
C52      C      0.348750000000     0.155820000000     0.011730000000     0.403078   
C53      C      0.495950000000     0.475330000000     0.967810000000     0.399896   
C54      C      0.557060000000     0.575830000000     0.978130000000     0.400225   
C55      C      0.527180000000     0.521720000000     0.043730000000     0.402629   
C56      C      0.525970000000     0.529940000000     0.902060000000     0.400727   
C57      C      0.211960000000     0.882800000000     0.266080000000     0.398534   
C58      C      0.164250000000     0.787950000000     0.317090000000     0.398361   
C59      C      0.181060000000     0.818200000000     0.224600000000     0.401606   
C60      C      0.194700000000     0.852210000000     0.358730000000     0.398611   
C61      C      0.040010000000     0.540140000000     0.448480000000     0.399336   
C62      C      0.991900000000     0.438600000000     0.452050000000     0.402424   
C63      C      0.020460000000     0.488530000000     0.379540000000     0.399291   
C64      C      0.011830000000     0.491090000000     0.521160000000     0.398507   
C65      C      0.893710000000     0.228560000000     0.647350000000     0.400841   
C66      C      0.850560000000     0.129390000000     0.618420000000     0.402783   
C67      C      0.879460000000     0.190400000000     0.563790000000     0.399133   
C68      C      0.865280000000     0.167970000000     0.702690000000     0.400759   
C69      C      0.698620000000     0.832460000000     0.891830000000     0.399164   
C70      C      0.741730000000     0.924380000000     0.831220000000     0.399834   
C71      C      0.724620000000     0.898730000000     0.925600000000     0.400219   
C72      C      0.715400000000     0.857510000000     0.796560000000     0.399966   
C73      C      0.801230000000     0.072640000000     0.644850000000    -0.0313968  
C74      C      0.788690000000     0.977690000000     0.777500000000    -0.0299218  
C75      C      0.737600000000     0.960030000000     0.805910000000    -0.00734097 
C76      C      0.780990000000     0.964000000000     0.813590000000    -0.00715083 
C77      C      0.796840000000     0.034240000000     0.745170000000    -0.0530438  
C78      C      0.791200000000     0.014320000000     0.676120000000    -0.0545991  
C79      C      0.784150000000     0.007790000000     0.740310000000     0.0610437  
C80      C      0.746880000000     0.974080000000     0.770170000000    -0.0300793  
C81      C      0.803810000000     0.040760000000     0.680980000000     0.0621383  
C82      C      0.841880000000     0.072220000000     0.649940000000    -0.0432611  
C83      C      0.806690000000     0.050650000000     0.715850000000    -0.0567793  
C84      C      0.850980000000     0.087340000000     0.614790000000     0.0364137  
C85      C      0.810810000000     0.088290000000     0.610300000000    -0.00751273 
C86      C      0.781490000000     0.997900000000     0.705480000000    -0.0560224  
C87      C      0.943990000000     0.383100000000     0.491920000000    -0.0307873  
C88      C      0.939520000000     0.287050000000     0.616720000000    -0.0303273  
C89      C      0.890030000000     0.267510000000     0.651320000000    -0.00667274 
C90      C      0.932820000000     0.271050000000     0.650920000000    -0.00659662 
C91      C      0.927220000000     0.307540000000     0.548940000000    -0.0561524  
C92      C      0.952750000000     0.360230000000     0.559950000000    -0.0564193  
C93      C      0.932210000000     0.317260000000     0.584090000000     0.0613123  
C94      C      0.897010000000     0.283630000000     0.617190000000    -0.0302664  
C95      C      0.947640000000     0.350480000000     0.524840000000     0.0616163  
C96      C      0.983910000000     0.381490000000     0.490420000000    -0.0427906  
C97      C      0.934850000000     0.324080000000     0.519670000000    -0.0542301  
C98      C      0.990940000000     0.395710000000     0.454500000000     0.0360525  
C99      C      0.951110000000     0.397950000000     0.456540000000    -0.00850384 
C100     C      0.945000000000     0.343680000000     0.589270000000    -0.0540259  
C101     C      0.092980000000     0.608770000000     0.441510000000    -0.0301658  
C102     C      0.112160000000     0.723850000000     0.347840000000    -0.0299337  
C103     C      0.167940000000     0.753410000000     0.345780000000    -0.00693054 
C104     C      0.125130000000     0.752720000000     0.342980000000    -0.00691673 
C105     C      0.112570000000     0.686500000000     0.418140000000    -0.0541948  
C106     C      0.093120000000     0.645780000000     0.369960000000    -0.0534147  
C107     C      0.115530000000     0.691410000000     0.381330000000     0.0615502  
C108     C      0.152460000000     0.724500000000     0.350360000000    -0.0296896  
C109     C      0.090090000000     0.640860000000     0.406810000000     0.0606452  
C110     C      0.053170000000     0.608460000000     0.438200000000    -0.0412092  
C111     C      0.100010000000     0.661500000000     0.430900000000    -0.0561441  
C112     C      0.037190000000     0.579480000000     0.445520000000     0.0363138  
C113     C      0.080700000000     0.579960000000     0.445530000000    -0.00513833 
C114     C      0.105750000000     0.670830000000     0.357200000000    -0.0566687  
C115     C      0.648350000000     0.770750000000     0.932970000000    -0.0301821  
C116     C      0.615040000000     0.638190000000     0.964900000000    -0.0300423  
C117     C      0.562010000000     0.618590000000     0.986260000000    -0.00698334 
C118     C      0.600730000000     0.612770000000     0.984790000000    -0.00715856 
C119     C      0.624210000000     0.685930000000     0.925360000000    -0.0565761  
C120     C      0.644150000000     0.725800000000     0.974960000000    -0.056019   
C121     C      0.620090000000     0.680490000000     0.962210000000     0.0615098  
C122     C      0.577760000000     0.643660000000     0.966060000000    -0.0300037  
C123     C      0.648500000000     0.731290000000     0.938110000000     0.0605099  
C124     C      0.688300000000     0.771480000000     0.938650000000    -0.0409271  
C125     C      0.638430000000     0.711140000000     0.913540000000    -0.0534965  
C126     C      0.703490000000     0.798030000000     0.920660000000     0.0348808  
C127     C      0.659260000000     0.794860000000     0.910510000000    -0.005597   
C128     C      0.630180000000     0.700610000000     0.986760000000    -0.0542732  
C129     C      0.321070000000     0.058560000000     0.131410000000    -0.0302406  
C130     C      0.223610000000     0.945370000000     0.228130000000    -0.0296716  
C131     C      0.251490000000     0.918260000000     0.241790000000    -0.00663731 
C132     C      0.208270000000     0.916740000000     0.235580000000    -0.00706633 
C133     C      0.268030000000     0.998860000000     0.216520000000    -0.0566964  
C134     C      0.278470000000     0.003860000000     0.143100000000    -0.0558464  
C135     C      0.260740000000     0.976990000000     0.195520000000     0.0616037  
C136     C      0.264080000000     0.946850000000     0.234560000000    -0.0297385  
C137     C      0.285080000000     0.025740000000     0.163810000000     0.0604269  
C138     C      0.279090000000     0.052340000000     0.121480000000    -0.0408301  
C139     C      0.279960000000     0.023000000000     0.200620000000    -0.053316   
C140     C      0.289290000000     0.080070000000     0.108890000000     0.034923   
C141     C      0.334670000000     0.086990000000     0.122930000000    -0.00581188 
C142     C      0.266330000000     0.979770000000     0.158910000000    -0.0541727  
C143     C      0.376860000000     0.279150000000     0.022540000000    -0.0300008  
C144     C      0.477930000000     0.408350000000     0.978380000000    -0.0298963  
C145     C      0.452280000000     0.437680000000     0.966360000000    -0.00706154 
C146     C      0.491090000000     0.432890000000     0.956470000000    -0.00706909 
C147     C      0.424600000000     0.350170000000     0.966250000000    -0.0544417  
C148     C      0.426170000000     0.341760000000     0.039590000000    -0.0534154  
C149     C      0.436990000000     0.371010000000     0.989370000000     0.0616535  
C150     C      0.440380000000     0.412730000000     0.987690000000    -0.0301892  
C151     C      0.414120000000     0.320890000000     0.016380000000     0.0603182  
C152     C      0.418540000000     0.283550000000     0.017760000000    -0.0411723  
C153     C      0.413280000000     0.325320000000     0.979480000000    -0.0558041  
C154     C      0.410360000000     0.258090000000     0.037210000000     0.0352436  
C155     C      0.366040000000     0.254710000000     0.044420000000    -0.00714764 
C156     C      0.437550000000     0.366650000000     0.026310000000    -0.0566661  
C157     C      0.741260000000     0.853130000000     0.521880000000    -0.0308726  
C158     C      0.692290000000     0.842630000000     0.704780000000    -0.0300237  
C159     C      0.734370000000     0.845460000000     0.746720000000    -0.00718972 
C160     C      0.688340000000     0.834710000000     0.744180000000    -0.00713763 
C161     C      0.711420000000     0.822210000000     0.628650000000    -0.0537428  
C162     C      0.720390000000     0.868050000000     0.597840000000    -0.0545013  
C163     C      0.714270000000     0.842140000000     0.650750000000     0.0609247  
C164     C      0.736930000000     0.853240000000     0.707250000000    -0.0300514  
C165     C      0.716990000000     0.847920000000     0.575760000000     0.0618092  
C166     C      0.693860000000     0.833520000000     0.519040000000    -0.0430857  
C167     C      0.712980000000     0.825090000000     0.591460000000    -0.0567472  
C168     C      0.697250000000     0.827020000000     0.479910000000     0.0380764  
C169     C      0.744050000000     0.862510000000     0.483300000000    -0.00301552 
C170     C      0.719290000000     0.865350000000     0.635060000000    -0.0560294  
C171     C      0.704330000000     0.911570000000     0.015200000000    -0.0300942  
C172     C      0.739860000000     0.905580000000     0.201190000000    -0.0301103  
C173     C      0.691110000000     0.876100000000     0.238070000000    -0.00739218 
C174     C      0.738270000000     0.909330000000     0.241400000000    -0.00678515 
C175     C      0.719030000000     0.921440000000     0.128430000000    -0.054163   
C176     C      0.719610000000     0.882990000000     0.087850000000    -0.0533041  
C177     C      0.717130000000     0.900030000000     0.145740000000     0.0613414  
C178     C      0.694700000000     0.874200000000     0.197880000000    -0.0299793  
C179     C      0.720850000000     0.904080000000     0.070470000000     0.0608697  
C180     C      0.748520000000     0.923340000000     0.019510000000    -0.0409909  
C181     C      0.721230000000     0.923690000000     0.091210000000    -0.0560121  
C182     C      0.750950000000     0.918770000000     0.979430000000     0.0369422  
C183     C      0.703360000000     0.907550000000     0.974610000000    -0.00512581 
C184     C      0.718110000000     0.881060000000     0.125160000000    -0.0562901  
C185     C      0.742650000000     0.781220000000     0.311660000000    -0.0302512  
C186     C      0.832470000000     0.749220000000     0.225310000000    -0.0299078  
C187     C      0.800410000000     0.694070000000     0.217750000000    -0.00665286 
C188     C      0.845410000000     0.733190000000     0.220900000000    -0.00689529 
C189     C      0.792530000000     0.749960000000     0.292470000000    -0.0542793  
C190     C      0.781580000000     0.779030000000     0.245100000000    -0.0534227  
C191     C      0.797220000000     0.749530000000     0.255890000000     0.0615484  
C192     C      0.790120000000     0.712450000000     0.222050000000    -0.0299854  
C193     C      0.777250000000     0.779760000000     0.281820000000     0.0603212  
C194     C      0.785620000000     0.815600000000     0.319120000000    -0.0410481  
C195     C      0.782540000000     0.764800000000     0.305420000000    -0.0558973  
C196     C      0.776900000000     0.834950000000     0.328740000000     0.0350935  
C197     C      0.730690000000     0.797980000000     0.316660000000    -0.00608457 
C198     C      0.791360000000     0.763950000000     0.232100000000    -0.0566589  
C199     C      0.594240000000     0.972860000000     0.497350000000    -0.0301151  
C200     C      0.691220000000     0.951060000000     0.411390000000    -0.0298956  
C201     C      0.660070000000     0.895770000000     0.404350000000    -0.00672961 
C202     C      0.704740000000     0.935460000000     0.407890000000    -0.00696171 
C203     C      0.652220000000     0.953020000000     0.477650000000    -0.0543143  
C204     C      0.634300000000     0.975260000000     0.428360000000    -0.0533952  
C205     C      0.655310000000     0.950710000000     0.440990000000     0.0616923  
C206     C      0.649290000000     0.913730000000     0.408000000000    -0.0298438  
C207     C      0.630710000000     0.977120000000     0.465050000000     0.0605498  
C208     C      0.633310000000     0.012930000000     0.497140000000    -0.0410175  
C209     C      0.640120000000     0.966160000000     0.489710000000    -0.0559905  
C210     C      0.619560000000     0.028350000000     0.503820000000     0.035565   
C211     C      0.577200000000     0.984640000000     0.501000000000    -0.00569886 
C212     C      0.646570000000     0.962240000000     0.416310000000    -0.0566913  
C213     C      0.023490000000     0.527420000000     0.798060000000    -0.0322733  
C214     C      0.984170000000     0.484560000000     0.612900000000    -0.0300245  
C215     C      0.034080000000     0.504010000000     0.578970000000    -0.00750498 
C216     C      0.986880000000     0.491260000000     0.573040000000    -0.00671312 
C217     C      0.002520000000     0.519990000000     0.686120000000    -0.0537246  
C218     C      0.004290000000     0.482690000000     0.728160000000    -0.0541134  
C219     C      0.005540000000     0.500910000000     0.669570000000     0.061111   
C220     C      0.028830000000     0.497160000000     0.618610000000    -0.0295596  
C221     C      0.002350000000     0.502400000000     0.744700000000     0.0617739  
C222     C      0.976730000000     0.496430000000     0.797710000000    -0.0423702  
C223     C      0.000550000000     0.520570000000     0.723300000000    -0.0563245  
C224     C      0.976650000000     0.492100000000     0.838490000000     0.0376359  
C225     C      0.016880000000     0.534970000000     0.834100000000    -0.0050323  
C226     C      0.005460000000     0.481640000000     0.690860000000    -0.0558025  
C227     C      0.056840000000     0.512860000000     0.100250000000    -0.0323704  
C228     C      0.037090000000     0.475390000000     0.288980000000    -0.0304508  
C229     C      0.011160000000     0.500290000000     0.320790000000    -0.00745451 
C230     C      0.043340000000     0.484820000000     0.327610000000    -0.00595842 
C231     C      0.056780000000     0.499560000000     0.214080000000    -0.0525309  
C232     C      0.013200000000     0.477640000000     0.170900000000    -0.0547187  
C233     C      0.032630000000     0.489810000000     0.230140000000     0.0597728  
C234     C      0.007790000000     0.491340000000     0.281870000000    -0.0299     
C235     C      0.037370000000     0.488120000000     0.155040000000     0.0625577  
C236     C      0.042080000000     0.466380000000     0.103510000000    -0.0423742  
C237     C      0.059130000000     0.498010000000     0.177120000000    -0.0570329  
C238     C      0.037060000000     0.463490000000     0.062740000000     0.0374938  
C239     C      0.069020000000     0.510560000000     0.065330000000    -0.00528926 
C240     C      0.010710000000     0.477960000000     0.208070000000    -0.0540163  
C241     C      0.984390000000     0.562190000000     0.036420000000    -0.0298638  
C242     C      0.882900000000     0.584020000000     0.104800000000    -0.0298546  
C243     C      0.916360000000     0.636970000000     0.125880000000    -0.00698981 
C244     C      0.873090000000     0.596220000000     0.131700000000    -0.0072758  
C245     C      0.934670000000     0.572850000000     0.107920000000    -0.0542253  
C246     C      0.929850000000     0.566760000000     0.033620000000    -0.0533774  
C247     C      0.920880000000     0.582000000000     0.088970000000     0.0615439  
C248     C      0.923730000000     0.622730000000     0.099050000000    -0.0297044  
C249     C      0.943890000000     0.557840000000     0.052550000000     0.0604278  
C250     C      0.948020000000     0.520460000000     0.044080000000    -0.0406123  
C251     C      0.946150000000     0.560950000000     0.090020000000    -0.0559297  
C252     C      0.959340000000     0.507820000000     0.019770000000     0.0340679  
C253     C      0.997090000000     0.553640000000     0.008900000000    -0.00655651 
C254     C      0.918470000000     0.578830000000     0.051570000000    -0.0566522  
C255     C      0.374160000000     0.174810000000     0.926150000000    -0.0309865  
C256     C      0.330010000000     0.190680000000     0.750520000000    -0.0302533  
C257     C      0.372560000000     0.236720000000     0.720370000000    -0.0066846  
C258     C      0.325950000000     0.203720000000     0.718260000000    -0.00632276 
C259     C      0.350660000000     0.208140000000     0.838290000000    -0.0537868  
C260     C      0.357270000000     0.165610000000     0.838200000000    -0.0542909  
C261     C      0.353580000000     0.198460000000     0.805710000000     0.0612018  
C262     C      0.375460000000     0.222800000000     0.752790000000    -0.0305059  
C263     C      0.353300000000     0.174650000000     0.870640000000     0.0618198  
C264     C      0.327230000000     0.152360000000     0.922400000000    -0.0426489  
C265     C      0.350770000000     0.196550000000     0.870600000000    -0.0564402  
C266     C      0.325450000000     0.134920000000     0.953390000000     0.0359441  
C267     C      0.372820000000     0.157830000000     0.957550000000    -0.0079095  
C268     C      0.357650000000     0.177490000000     0.805970000000    -0.055961   
C269     C      0.333190000000     0.186580000000     0.427650000000    -0.0298298  
C270     C      0.375430000000     0.206300000000     0.241260000000    -0.0298618  
C271     C      0.327600000000     0.182850000000     0.200780000000    -0.00708165 
C272     C      0.374960000000     0.194730000000     0.204790000000    -0.0062306  
C273     C      0.352160000000     0.179120000000     0.319690000000    -0.0540353  
C274     C      0.352010000000     0.222090000000     0.346610000000    -0.0536286  
C275     C      0.350980000000     0.196380000000     0.295920000000     0.0616314  
C276     C      0.330980000000     0.194450000000     0.238140000000    -0.0297258  
C277     C      0.352510000000     0.204450000000     0.370420000000     0.0606466  
C278     C      0.378110000000     0.217040000000     0.424060000000    -0.0410417  
C279     C      0.353250000000     0.183190000000     0.356550000000    -0.0559347  
C280     C      0.379360000000     0.225850000000     0.463200000000     0.0346952  
C281     C      0.330940000000     0.193840000000     0.465870000000    -0.00770858 
C282     C      0.351580000000     0.218340000000     0.309610000000    -0.0564303  
C283     C      0.394810000000     0.135640000000     0.602590000000    -0.0302174  
C284     C      0.501180000000     0.118460000000     0.539980000000    -0.0298477  
C285     C      0.478890000000     0.063420000000     0.548010000000    -0.00671734 
C286     C      0.519160000000     0.107520000000     0.542560000000    -0.00703278 
C287     C      0.452930000000     0.122160000000     0.536940000000    -0.0566422  
C288     C      0.441750000000     0.129160000000     0.607240000000    -0.0560005  
C289     C      0.462320000000     0.114190000000     0.565750000000     0.0616732  
C290     C      0.463400000000     0.077010000000     0.544460000000    -0.0297574  
C291     C      0.433020000000     0.137900000000     0.578520000000     0.0606673  
C292     C      0.434490000000     0.175100000000     0.604240000000    -0.0411501  
C293     C      0.438550000000     0.134080000000     0.543410000000    -0.053306   
C294     C      0.421280000000     0.191350000000     0.604740000000     0.0362164  
C295     C      0.378340000000     0.148230000000     0.599900000000    -0.00535755 
C296     C      0.456350000000     0.117530000000     0.600780000000    -0.0541638  
C297     C      0.106210000000     0.481350000000     0.865760000000    -0.0300795  
C298     C      0.144120000000     0.386050000000     0.826730000000    -0.0300229  
C299     C      0.198510000000     0.416830000000     0.811020000000    -0.00715461 
C300     C      0.157710000000     0.374520000000     0.805930000000    -0.00708113 
C301     C      0.131760000000     0.434990000000     0.810590000000    -0.0543246  
C302     C      0.123030000000     0.434980000000     0.884100000000    -0.0533946  
C303     C      0.142220000000     0.424690000000     0.834240000000     0.0614468  
C304     C      0.183460000000     0.426930000000     0.831590000000    -0.0302255  
C305     C      0.112340000000     0.445040000000     0.860410000000     0.0607259  
C306     C      0.069840000000     0.439310000000     0.862180000000    -0.0407547  
C307     C      0.116960000000     0.445110000000     0.823420000000    -0.0560554  
C308     C      0.052200000000     0.446910000000     0.882150000000     0.0350977  
C309     C      0.092670000000     0.491910000000     0.888520000000    -0.00552265 
C310     C      0.137890000000     0.424890000000     0.871250000000    -0.0564004  
C311     C      0.295010000000     0.322820000000     0.789760000000    -0.0312287  
C312     C      0.283560000000     0.243990000000     0.634100000000    -0.0304351  
C313     C      0.327810000000     0.279670000000     0.592390000000    -0.00627634 
C314     C      0.287110000000     0.238770000000     0.595030000000    -0.0063429  
C315     C      0.302890000000     0.270220000000     0.706870000000    -0.0563287  
C316     C      0.275100000000     0.295190000000     0.718460000000    -0.0565086  
C317     C      0.292960000000     0.277090000000     0.677430000000     0.0614463  
C318     C      0.324290000000     0.285060000000     0.631390000000    -0.0305808  
C319     C      0.285450000000     0.288740000000     0.747800000000     0.0617833  
C320     C      0.255520000000     0.280660000000     0.796150000000    -0.0432985  
C321     C      0.299190000000     0.276120000000     0.741680000000    -0.0543562  
C322     C      0.254050000000     0.287030000000     0.835560000000     0.0366082  
C323     C      0.292400000000     0.328870000000     0.828900000000    -0.0074744  
C324     C      0.278950000000     0.289450000000     0.683590000000    -0.0541276  
C325     C      0.495770000000     0.517930000000     0.621620000000    -0.0302527  
C326     C      0.532760000000     0.517320000000     0.807760000000    -0.0302177  
C327     C      0.510470000000     0.542370000000     0.848670000000    -0.0070196  
C328     C      0.544790000000     0.530090000000     0.843360000000    -0.00650486 
C329     C      0.529780000000     0.538280000000     0.726760000000    -0.0541884  
C330     C      0.486280000000     0.492000000000     0.709660000000    -0.054189   
C331     C      0.513810000000     0.522800000000     0.754200000000     0.0615541  
C332     C      0.500080000000     0.529490000000     0.812540000000    -0.0300567  
C333     C      0.502100000000     0.507640000000     0.682180000000     0.0612225  
C334     C      0.512950000000     0.489550000000     0.632510000000    -0.0417582  
C335     C      0.524250000000     0.530700000000     0.691080000000    -0.0562534  
C336     C      0.504230000000     0.477390000000     0.595190000000     0.0344129  
C337     C      0.486390000000     0.506350000000     0.584660000000    -0.00744397 
C338     C      0.492190000000     0.499280000000     0.745440000000    -0.0564219  
C339     C      0.520590000000     0.532590000000     0.140210000000    -0.0314182  
C340     C      0.560200000000     0.514780000000     0.318240000000    -0.0301369  
C341     C      0.565980000000     0.559680000000     0.355220000000    -0.00667032 
C342     C      0.573770000000     0.522810000000     0.354390000000    -0.00644741 
C343     C      0.568960000000     0.543110000000     0.234180000000    -0.0534444  
C344     C      0.517680000000     0.507070000000     0.221580000000    -0.0553019  
C345     C      0.552680000000     0.530960000000     0.263150000000     0.0612214  
C346     C      0.552470000000     0.550930000000     0.319030000000    -0.0303711  
C347     C      0.534080000000     0.518980000000     0.192630000000     0.063256   
C348     C      0.536090000000     0.501080000000     0.134520000000    -0.0440325  
C349     C      0.559760000000     0.537340000000     0.199160000000    -0.0574938  
C350     C      0.546130000000     0.514130000000     0.097750000000     0.0383237  
C351     C      0.510480000000     0.525100000000     0.102160000000    -0.00366661 
C352     C      0.526790000000     0.513070000000     0.256630000000    -0.0559343  
C353     C      0.881020000000     0.166840000000     0.800440000000    -0.0301609  
C354     C      0.863370000000     0.204510000000     0.973340000000    -0.0307089  
C355     C      0.837910000000     0.162160000000     0.023170000000    -0.00664355 
C356     C      0.855410000000     0.208760000000     0.010450000000    -0.00619604 
C357     C      0.862800000000     0.163220000000     0.911570000000    -0.0549412  
C358     C      0.842820000000     0.182910000000     0.861510000000    -0.0533703  
C359     C      0.849080000000     0.175050000000     0.923600000000     0.0609339  
C360     C      0.845890000000     0.159260000000     0.985450000000    -0.0304547  
C361     C      0.856040000000     0.170780000000     0.849430000000     0.0607618  
C362     C      0.835570000000     0.147580000000     0.795450000000    -0.0417644  
C363     C      0.865500000000     0.160390000000     0.875010000000    -0.0550085  
C364     C      0.835940000000     0.151040000000     0.754540000000     0.0382331  
C365     C      0.885400000000     0.170760000000     0.760110000000    -0.00566313 
C366     C      0.839020000000     0.184640000000     0.898040000000    -0.0538067  
C367     C      0.904390000000     0.239930000000     0.287310000000    -0.0322189  
C368     C      0.903690000000     0.196510000000     0.470790000000    -0.0302249  
C369     C      0.869050000000     0.207790000000     0.510820000000    -0.00686409 
C370     C      0.907340000000     0.200780000000     0.511130000000    -0.00630446 
C371     C      0.915840000000     0.234590000000     0.401730000000    -0.0537633  
C372     C      0.880270000000     0.195250000000     0.358330000000    -0.0540246  
C373     C      0.895080000000     0.213390000000     0.417550000000     0.0611294  
C374     C      0.867770000000     0.203890000000     0.470260000000    -0.0302858  
C375     C      0.900830000000     0.216630000000     0.342560000000     0.0620569  
C376     C      0.924280000000     0.212720000000     0.292790000000    -0.0427073  
C377     C      0.918970000000     0.236090000000     0.364620000000    -0.0565551  
C378     C      0.921330000000     0.206740000000     0.252400000000     0.0394144  
C379     C      0.918740000000     0.247160000000     0.251320000000    -0.00520151 
C380     C      0.877550000000     0.193380000000     0.395530000000    -0.0557143  
C381     C      0.183550000000     0.367490000000     0.494770000000    -0.0308017  
C382     C      0.200330000000     0.323150000000     0.670080000000    -0.0302846  
C383     C      0.246630000000     0.366770000000     0.697780000000    -0.00697111 
C384     C      0.214130000000     0.320280000000     0.702480000000    -0.00655556 
C385     C      0.217210000000     0.343180000000     0.581160000000    -0.0539416  
C386     C      0.173550000000     0.348120000000     0.581080000000    -0.0542592  
C387     C      0.206970000000     0.345330000000     0.613730000000     0.0611554  
C388     C      0.231930000000     0.368550000000     0.665450000000    -0.0303703  
C389     C      0.183270000000     0.345080000000     0.548600000000     0.0615962  
C390     C      0.162930000000     0.320880000000     0.494560000000    -0.0424888  
C391     C      0.205680000000     0.343340000000     0.548760000000    -0.0563927  
C392     C      0.145570000000     0.319420000000     0.463500000000     0.0357247  
C393     C      0.166690000000     0.366750000000     0.463510000000    -0.00809399 
C394     C      0.185390000000     0.348520000000     0.613400000000    -0.0561147  
C395     C      0.240430000000     0.371980000000     0.994200000000    -0.0316411  
C396     C      0.198020000000     0.381530000000     0.174150000000    -0.0301128  
C397     C      0.197480000000     0.339420000000     0.213000000000    -0.00616276 
C398     C      0.184280000000     0.373480000000     0.210120000000    -0.00698111 
C399     C      0.192960000000     0.342110000000     0.095930000000    -0.0524176  
C400     C      0.226010000000     0.390220000000     0.067520000000    -0.055362   
C401     C      0.204270000000     0.363230000000     0.118880000000     0.0601303  
C402     C      0.211160000000     0.349830000000     0.177230000000    -0.0305252  
C403     C      0.213720000000     0.369270000000     0.044510000000     0.0634334  
C404     C      0.194720000000     0.360730000000     0.983620000000    -0.0437706  
C405     C      0.198090000000     0.344930000000     0.059240000000    -0.0571144  
C406     C      0.196350000000     0.344690000000     0.952540000000     0.0380123  
C407     C      0.244130000000     0.376910000000     0.953900000000    -0.00332656 
C408     C      0.221830000000     0.387250000000     0.104430000000    -0.0545959  
C409     C      0.984820000000     0.233080000000     0.135590000000    -0.0319073  
C410     C      0.076720000000     0.323310000000     0.264970000000    -0.030186   
C411     C      0.086420000000     0.288370000000     0.306700000000    -0.00683298 
C412     C      0.089150000000     0.330920000000     0.302010000000    -0.00708162 
C413     C      0.018980000000     0.276980000000     0.231570000000    -0.0525114  
C414     C      0.042760000000     0.281770000000     0.165500000000    -0.0545401  
C415     C      0.045570000000     0.287660000000     0.230120000000     0.0610262  
C416     C      0.073970000000     0.281650000000     0.269660000000    -0.0302612  
C417     C      0.016140000000     0.270690000000     0.167050000000     0.0626389  
C418     C      0.988060000000     0.275200000000     0.124850000000    -0.043868   
C419     C      0.004340000000     0.268670000000     0.200350000000    -0.056801   
C420     C      0.973630000000     0.264720000000     0.089460000000     0.0377757  
C421     C      0.969610000000     0.223110000000     0.100640000000    -0.00738664 
C422     C      0.057450000000     0.290340000000     0.196690000000    -0.0556329  
C423     C      0.289500000000     0.381420000000     0.382410000000    -0.0299877  
C424     C      0.422380000000     0.481590000000     0.409960000000    -0.0298016  
C425     C      0.448520000000     0.452970000000     0.425380000000    -0.00691709 
C426     C      0.447080000000     0.494660000000     0.431660000000    -0.00638971 
C427     C      0.376340000000     0.440760000000     0.369020000000    -0.0568076  
C428     C      0.337670000000     0.419510000000     0.420600000000    -0.0559174  
C429     C      0.382760000000     0.441600000000     0.405420000000     0.061726   
C430     C      0.423520000000     0.442560000000     0.404290000000    -0.0297619  
C431     C      0.331150000000     0.419010000000     0.384250000000     0.0602807  
C432     C      0.293210000000     0.422640000000     0.387480000000    -0.0411558  
C433     C      0.350690000000     0.429560000000     0.358630000000    -0.0535451  
C434     C      0.266360000000     0.413420000000     0.371420000000     0.0351955  
C435     C      0.263850000000     0.369730000000     0.363280000000    -0.00709687 
C436     C      0.363250000000     0.430740000000     0.430940000000    -0.0542701  
C437     C      0.586160000000     0.076360000000     0.679880000000    -0.0299707  
C438     C      0.579870000000     0.038920000000     0.867290000000    -0.0302802  
C439     C      0.592770000000     0.084000000000     0.909930000000    -0.00680953 
C440     C      0.590750000000     0.041720000000     0.905100000000    -0.00679312 
C441     C      0.602100000000     0.065470000000     0.788460000000    -0.054228   
C442     C      0.553910000000     0.054810000000     0.764350000000    -0.0534199  
C443     C      0.583520000000     0.062520000000     0.813420000000     0.0614306  
C444     C      0.582340000000     0.080390000000     0.871670000000    -0.0304842  
C445     C      0.572690000000     0.058340000000     0.739340000000     0.0603629  
C446     C      0.560870000000     0.031020000000     0.687590000000    -0.0409761  
C447     C      0.596720000000     0.063040000000     0.751830000000    -0.0557573  
C448     C      0.549330000000     0.026780000000     0.649550000000     0.0349072  
C449     C      0.576010000000     0.075700000000     0.642330000000    -0.00756058 
C450     C      0.559050000000     0.056480000000     0.801070000000    -0.0564143  
C451     C      0.525610000000     0.005580000000     0.170990000000    -0.0321603  
C452     C      0.508570000000     0.026880000000     0.359740000000    -0.030342   
C453     C      0.559820000000     0.054420000000     0.390150000000    -0.00766414 
C454     C      0.512640000000     0.020990000000     0.398240000000    -0.00600639 
C455     C      0.512330000000     0.007420000000     0.284550000000    -0.0522414  
C456     C      0.534350000000     0.050360000000     0.240480000000    -0.0547504  
C457     C      0.526840000000     0.031610000000     0.300220000000     0.0593943  
C458     C      0.553310000000     0.057200000000     0.351430000000    -0.0298296  
C459     C      0.520660000000     0.026150000000     0.225030000000     0.0623399  
C460     C      0.495340000000     0.022380000000     0.172230000000    -0.0424353  
C461     C      0.508490000000     0.004730000000     0.247540000000    -0.0569657  
C462     C      0.498540000000     0.027530000000     0.131490000000     0.0375684  
C463     C      0.511660000000     0.994000000000     0.135500000000    -0.00575592 
C464     C      0.537030000000     0.053220000000     0.277630000000    -0.0538784  
C465     C      0.774220000000     0.178310000000     0.163400000000    -0.0311474  
C466     C      0.652360000000     0.072940000000     0.098000000000    -0.0300806  
C467     C      0.622530000000     0.098510000000     0.090270000000    -0.00674008 
C468     C      0.623320000000     0.057040000000     0.094120000000    -0.00697587 
C469     C      0.705680000000     0.118390000000     0.099970000000    -0.0563452  
C470     C      0.718080000000     0.131580000000     0.171890000000    -0.0563247  
C471     C      0.686050000000     0.111320000000     0.125370000000     0.0615257  
C472     C      0.651650000000     0.112580000000     0.093950000000    -0.0300168  
C473     C      0.737680000000     0.137790000000     0.146730000000     0.0614813  
C474     C      0.770160000000     0.138440000000     0.186250000000    -0.042302   
C475     C      0.731270000000     0.131350000000     0.110730000000    -0.0535907  
C476     C      0.799190000000     0.148650000000     0.186450000000     0.0385475  
C477     C      0.800710000000     0.191150000000     0.181640000000    -0.00527958 
C478     C      0.692490000000     0.118270000000     0.161230000000    -0.0541681  
C479     C      0.195580000000     0.856290000000     0.641400000000    -0.0335192  
C480     C      0.223300000000     0.877520000000     0.449420000000    -0.0302229  
C481     C      0.173480000000     0.852800000000     0.414100000000    -0.00692416 
C482     C      0.220930000000     0.864890000000     0.413130000000    -0.0059465  
C483     C      0.210640000000     0.855510000000     0.528690000000    -0.053365   
C484     C      0.197760000000     0.889530000000     0.559800000000    -0.05472    
C485     C      0.201860000000     0.868400000000     0.506850000000     0.0607414  
C486     C      0.178720000000     0.865260000000     0.451000000000    -0.0298568  
C487     C      0.205690000000     0.875950000000     0.581620000000     0.062123   
C488     C      0.233340000000     0.899780000000     0.630580000000    -0.0432122  
C489     C      0.213150000000     0.859660000000     0.565570000000    -0.0565178  
C490     C      0.235420000000     0.902890000000     0.671650000000     0.0368369  
C491     C      0.214520000000     0.854850000000     0.667420000000    -0.00616027 
C492     C      0.196300000000     0.886230000000     0.522670000000    -0.0552426  
C493     C      0.222180000000     0.881320000000     0.966360000000    -0.0300108  
C494     C      0.194880000000     0.805700000000     0.131420000000    -0.0302628  
C495     C      0.156310000000     0.807770000000     0.168070000000    -0.00612111 
C496     C      0.196580000000     0.804870000000     0.172310000000    -0.00558245 
C497     C      0.180300000000     0.818280000000     0.056860000000    -0.0567272  
C498     C      0.224910000000     0.863590000000     0.039690000000    -0.0558931  
C499     C      0.196330000000     0.833980000000     0.084380000000     0.062004   
C500     C      0.166280000000     0.824070000000     0.133890000000    -0.0308135  
C501     C      0.208310000000     0.848460000000     0.012130000000     0.0607317  
C502     C      0.233680000000     0.848830000000     0.962290000000    -0.0410733  
C503     C      0.186130000000     0.825690000000     0.021100000000    -0.0533757  
C504     C      0.234610000000     0.849310000000     0.921080000000     0.0368908  
C505     C      0.222550000000     0.885090000000     0.925860000000    -0.005854   
C506     C      0.218700000000     0.856520000000     0.075470000000    -0.0541266  
C507     C      0.453200000000     0.963560000000     0.923470000000    -0.0298456  
C508     C      0.339100000000     0.943700000000     0.826390000000    -0.0300769  
C509     C      0.317120000000     0.892560000000     0.796730000000    -0.00651809 
C510     C      0.319870000000     0.935280000000     0.795640000000    -0.00659108 
C511     C      0.399070000000     0.950540000000     0.837740000000    -0.0546172  
C512     C      0.390240000000     0.949910000000     0.911320000000    -0.0532702  
C513     C      0.373970000000     0.939460000000     0.850410000000     0.0620015  
C514     C      0.336450000000     0.902010000000     0.827540000000    -0.0304421  
C515     C      0.415390000000     0.961580000000     0.898580000000     0.0604689  
C516     C      0.450940000000     0.001830000000     0.916650000000    -0.0408212  
C517     C      0.419660000000     0.961450000000     0.861490000000    -0.0558     
C518     C      0.471020000000     0.016040000000     0.946210000000     0.0346383  
C519     C      0.471390000000     0.973850000000     0.955230000000    -0.00737088 
C520     C      0.369620000000     0.938820000000     0.887530000000    -0.0566892  
C521     C      0.856340000000     0.709960000000     0.827840000000    -0.0313296  
C522     C      0.860700000000     0.700340000000     0.008760000000    -0.029975   
C523     C      0.818610000000     0.659480000000     0.048380000000    -0.0067639  
C524     C      0.858230000000     0.703260000000     0.048990000000    -0.00727593 
C525     C      0.818750000000     0.689140000000     0.935720000000    -0.053698   
C526     C      0.851850000000     0.678050000000     0.897580000000    -0.0568911  
C527     C      0.835580000000     0.683670000000     0.954390000000     0.0608886  
C528     C      0.822970000000     0.658190000000     0.008290000000    -0.0301904  
C529     C      0.834900000000     0.683550000000     0.878970000000     0.0629128  
C530     C      0.831140000000     0.662310000000     0.821060000000    -0.0437608  
C531     C      0.818360000000     0.689010000000     0.898340000000    -0.0552871  
C532     C      0.850480000000     0.667330000000     0.790460000000     0.0379693  
C533     C      0.855280000000     0.711660000000     0.787240000000    -0.00353318 
C534     C      0.851850000000     0.677610000000     0.935000000000    -0.0552469  
C535     C      0.910720000000     0.692460000000     0.506430000000    -0.0306432  
C536     C      0.899450000000     0.678620000000     0.319290000000    -0.0302311  
C537     C      0.851290000000     0.636880000000     0.292790000000    -0.00678456 
C538     C      0.898330000000     0.666310000000     0.283140000000    -0.00687463 
C539     C      0.877610000000     0.652190000000     0.407850000000    -0.055307   
C540     C      0.888830000000     0.701830000000     0.423310000000    -0.0530456  
C541     C      0.881420000000     0.668960000000     0.379700000000     0.0622026  
C542     C      0.853630000000     0.650340000000     0.328480000000    -0.0303557  
C543     C      0.885910000000     0.685220000000     0.451880000000     0.0588853  
C544     C      0.889810000000     0.717000000000     0.497500000000    -0.0419824  
C545     C      0.879330000000     0.660030000000     0.443400000000    -0.0517903  
C546     C      0.892730000000     0.723210000000     0.538430000000     0.0369694  
C547     C      0.905570000000     0.688670000000     0.546510000000    -0.00324183 
C548     C      0.886060000000     0.693600000000     0.387810000000    -0.0568419  
C549     C      0.757610000000     0.651520000000     0.625680000000    -0.0300776  
C550     C      0.642810000000     0.552080000000     0.535390000000    -0.0298866  
C551     C      0.612690000000     0.577670000000     0.532590000000    -0.00660056 
C552     C      0.613850000000     0.536020000000     0.530420000000    -0.00715068 
C553     C      0.680060000000     0.591630000000     0.605170000000    -0.0541906  
C554     C      0.720990000000     0.611490000000     0.557050000000    -0.0534374  
C555     C      0.675180000000     0.588310000000     0.568390000000     0.0616239  
C556     C      0.641720000000     0.591430000000     0.537130000000    -0.0299989  
C557     C      0.725880000000     0.614710000000     0.593900000000     0.0606451  
C558     C      0.758420000000     0.612380000000     0.628570000000    -0.0409442  
C559     C      0.705120000000     0.604750000000     0.617940000000    -0.0559879  
C560     C      0.787340000000     0.626020000000     0.637340000000     0.0352291  
C561     C      0.786380000000     0.668310000000     0.630140000000    -0.005912   
C562     C      0.695860000000     0.598480000000     0.544270000000    -0.0564947  
C563     C      0.108930000000     0.840090000000     0.793730000000    -0.0302576  
C564     C      0.990010000000     0.740950000000     0.712460000000    -0.0295914  
C565     C      0.959370000000     0.765570000000     0.702380000000    -0.006728   
C566     C      0.961010000000     0.724220000000     0.710040000000    -0.00694    
C567     C      0.042980000000     0.788300000000     0.714190000000    -0.056654   
C568     C      0.054190000000     0.796920000000     0.787240000000    -0.0559996  
C569     C      0.022960000000     0.779810000000     0.739250000000     0.0617097  
C570     C      0.988550000000     0.779790000000     0.705450000000    -0.0298293  
C571     C      0.074260000000     0.805000000000     0.762280000000     0.0606558  
C572     C      0.105520000000     0.798940000000     0.794290000000    -0.0412374  
C573     C      0.068410000000     0.800770000000     0.725750000000    -0.0533052  
C574     C      0.134520000000     0.809980000000     0.800020000000     0.0362425  
C575     C      0.138050000000     0.854700000000     0.796730000000    -0.00510562 
C576     C      0.028810000000     0.784440000000     0.775690000000    -0.0541505  
Cu1      Cu     0.873270000000     0.716090000000     0.663070000000     0.843541   
Cu2      Cu     0.876170000000     0.676930000000     0.666990000000     0.842556   
Cu3      Cu     0.228210000000     0.893890000000     0.799640000000     0.842897   
Cu4      Cu     0.225460000000     0.851960000000     0.794530000000     0.846412   
Cu5      Cu     0.545920000000     0.056040000000     0.021020000000     0.841153   
Cu6      Cu     0.549380000000     0.017150000000     0.019310000000     0.844089   
Cu7      Cu     0.177580000000     0.371680000000     0.336730000000     0.845058   
Cu8      Cu     0.175750000000     0.330100000000     0.337240000000     0.84025    
Cu9      Cu     0.885350000000     0.227310000000     0.131860000000     0.845153   
Cu10     Cu     0.882770000000     0.185440000000     0.135970000000     0.843961   
Cu11     Cu     0.531890000000     0.536350000000     0.474350000000     0.843632   
Cu12     Cu     0.533830000000     0.496720000000     0.469690000000     0.843902   
Cu13     Cu     0.204960000000     0.331530000000     0.827880000000     0.846187   
Cu14     Cu     0.245360000000     0.372560000000     0.826460000000     0.838611   
Cu15     Cu     0.333130000000     0.193570000000     0.592310000000     0.842731   
Cu16     Cu     0.373950000000     0.234290000000     0.591230000000     0.843775   
Cu17     Cu     0.006670000000     0.478020000000     0.950790000000     0.842344   
Cu18     Cu     0.043720000000     0.521610000000     0.948650000000     0.846129   
Cu19     Cu     0.696400000000     0.848700000000     0.356660000000     0.841846   
Cu20     Cu     0.739780000000     0.885800000000     0.363020000000     0.841804   
Cu21     Cu     0.836370000000     0.646540000000     0.168840000000     0.839989   
Cu22     Cu     0.878820000000     0.685310000000     0.165680000000     0.840985   
Cu23     Cu     0.529160000000     0.025070000000     0.523820000000     0.839676   
Cu24     Cu     0.567640000000     0.067270000000     0.516220000000     0.841934   
Cu25     Cu     0.371810000000     0.172520000000     0.082820000000     0.842695   
Cu26     Cu     0.328940000000     0.167690000000     0.076370000000     0.844321   
Cu27     Cu     0.545310000000     0.522790000000     0.970610000000     0.846238   
Cu28     Cu     0.507590000000     0.528400000000     0.975180000000     0.841297   
Cu29     Cu     0.208660000000     0.835700000000     0.292850000000     0.839871   
Cu30     Cu     0.167450000000     0.835050000000     0.290330000000     0.843513   
Cu31     Cu     0.036610000000     0.490160000000     0.454000000000     0.843103   
Cu32     Cu     0.995290000000     0.488670000000     0.446690000000     0.840742   
Cu33     Cu     0.893290000000     0.180540000000     0.634850000000     0.846808   
Cu34     Cu     0.851050000000     0.177460000000     0.631520000000     0.839379   
Cu35     Cu     0.741400000000     0.880310000000     0.864410000000     0.84258    
Cu36     Cu     0.698830000000     0.876210000000     0.857610000000     0.841472   
H1       H      0.772020000000     0.977560000000     0.701000000000     0.0404787  
H2       H      0.780150000000     0.060010000000     0.642850000000     0.035653   
H3       H      0.849780000000     0.059110000000     0.652200000000     0.0404192  
H4       H      0.739860000000     0.974050000000     0.826820000000     0.0376966  
H5       H      0.804930000000     0.074900000000     0.587260000000     0.0354088  
H6       H      0.809660000000     0.991270000000     0.777920000000     0.0347986  
H7       H      0.736870000000     0.985030000000     0.765260000000     0.0347474  
H8       H      0.790810000000     0.952730000000     0.816840000000     0.0418023  
H9       H      0.788970000000     0.006460000000     0.649480000000     0.0443184  
H10      H      0.801390000000     0.099900000000     0.606870000000     0.0423676  
H11      H      0.799200000000     0.042120000000     0.771830000000     0.044798   
H12      H      0.805370000000     0.085900000000     0.667710000000     0.0433725  
H13      H      0.716890000000     0.945900000000     0.803600000000     0.0410282  
H14      H      0.843530000000     0.073090000000     0.592730000000     0.0292078  
H15      H      0.784600000000     0.963480000000     0.755920000000     0.0381702  
H16      H      0.741630000000     0.959810000000     0.748350000000     0.0376828  
H17      H      0.816540000000     0.071010000000     0.720360000000     0.0442803  
H18      H      0.848910000000     0.085610000000     0.673080000000     0.0468043  
H19      H      0.787900000000     0.978550000000     0.835190000000     0.0382088  
H20      H      0.949110000000     0.351430000000     0.616120000000     0.0442604  
H21      H      0.922810000000     0.371060000000     0.493270000000     0.0348213  
H22      H      0.991560000000     0.368120000000     0.491350000000     0.0402074  
H23      H      0.895240000000     0.280470000000     0.674780000000     0.0361672  
H24      H      0.942760000000     0.384080000000     0.434160000000     0.0363197  
H25      H      0.960400000000     0.300950000000     0.616860000000     0.0350908  
H26      H      0.887230000000     0.295080000000     0.617710000000     0.0349873  
H27      H      0.943400000000     0.260400000000     0.651500000000     0.0411686  
H28      H      0.962840000000     0.380570000000     0.564640000000     0.0415393  
H29      H      0.942210000000     0.410170000000     0.455910000000     0.0419098  
H30      H      0.917590000000     0.287230000000     0.544120000000     0.0417299  
H31      H      0.950470000000     0.396880000000     0.514530000000     0.0394949  
H32      H      0.869060000000     0.254240000000     0.652140000000     0.04129    
H33      H      0.981870000000     0.380910000000     0.433340000000     0.0293466  
H34      H      0.935180000000     0.274240000000     0.593200000000     0.0407802  
H35      H      0.889790000000     0.270590000000     0.593730000000     0.0401174  
H36      H      0.930970000000     0.316330000000     0.492820000000     0.0446615  
H37      H      0.992550000000     0.395360000000     0.512840000000     0.0456463  
H38      H      0.939140000000     0.284140000000     0.674310000000     0.0359782  
H39      H      0.107860000000     0.674140000000     0.328620000000     0.0407976  
H40      H      0.112180000000     0.616150000000     0.429110000000     0.0346755  
H41      H      0.041380000000     0.614110000000     0.421760000000     0.0390521  
H42      H      0.176120000000     0.762200000000     0.372170000000     0.0390048  
H43      H      0.086460000000     0.572560000000     0.422190000000     0.041456   
H44      H      0.093530000000     0.717250000000     0.361570000000     0.0345213  
H45      H      0.164180000000     0.718340000000     0.365960000000     0.0343807  
H46      H      0.114070000000     0.756880000000     0.322940000000     0.0401013  
H47      H      0.085620000000     0.630120000000     0.351110000000     0.0453343  
H48      H      0.088680000000     0.575630000000     0.469650000000     0.0373658  
H49      H      0.120050000000     0.702160000000     0.436990000000     0.0447381  
H50      H      0.095890000000     0.617620000000     0.468500000000     0.0351918  
H51      H      0.184260000000     0.758060000000     0.327560000000     0.0399973  
H52      H      0.023340000000     0.570870000000     0.423060000000     0.0352447  
H53      H      0.108210000000     0.714520000000     0.321090000000     0.0366004  
H54      H      0.148560000000     0.715190000000     0.323600000000     0.0365982  
H55      H      0.098020000000     0.658300000000     0.459490000000     0.0402687  
H56      H      0.057900000000     0.619770000000     0.463470000000     0.0394721  
H57      H      0.124180000000     0.761400000000     0.368730000000     0.038531   
H58      H      0.626900000000     0.696730000000     0.015150000000     0.044389   
H59      H      0.627680000000     0.758780000000     0.926310000000     0.0344208  
H60      H      0.698460000000     0.760710000000     0.933200000000     0.0391832  
H61      H      0.562420000000     0.622850000000     0.015270000000     0.0375139  
H62      H      0.651820000000     0.789560000000     0.882720000000     0.0405374  
H63      H      0.635700000000     0.647300000000     0.971790000000     0.0348609  
H64      H      0.570700000000     0.656830000000     0.973690000000     0.034343   
H65      H      0.607430000000     0.599890000000     0.974510000000     0.0416207  
H66      H      0.651260000000     0.740940000000     0.994580000000     0.0402345  
H67      H      0.651840000000     0.807080000000     0.921130000000     0.0391271  
H68      H      0.616270000000     0.670740000000     0.905800000000     0.0410432  
H69      H      0.649840000000     0.775780000000     0.961900000000     0.0364492  
H70      H      0.541840000000     0.609730000000     0.977080000000     0.0408006  
H71      H      0.712860000000     0.795840000000     0.896370000000     0.0342755  
H72      H      0.612940000000     0.634500000000     0.935560000000     0.0378675  
H73      H      0.574840000000     0.640070000000     0.936730000000     0.0380939  
H74      H      0.641330000000     0.715040000000     0.885130000000     0.0451074  
H75      H      0.687830000000     0.773260000000     0.968340000000     0.0396755  
H76      H      0.605840000000     0.616190000000     0.013640000000     0.0380129  
H77      H      0.261080000000     0.963130000000     0.142530000000     0.0447936  
H78      H      0.333360000000     0.054980000000     0.150020000000     0.0348892  
H79      H      0.259830000000     0.045320000000     0.133580000000     0.0392412  
H80      H      0.253420000000     0.908760000000     0.217490000000     0.040147   
H81      H      0.343760000000     0.097730000000     0.147900000000     0.0403386  
H82      H      0.211960000000     0.950530000000     0.210570000000     0.0346352  
H83      H      0.283070000000     0.953270000000     0.222020000000     0.0344079  
H84      H      0.192160000000     0.912920000000     0.253760000000     0.0400563  
H85      H      0.282370000000     0.005350000000     0.114680000000     0.0403319  
H86      H      0.350500000000     0.091490000000     0.103830000000     0.0395239  
H87      H      0.264270000000     0.997230000000     0.244990000000     0.0408352  
H88      H      0.318880000000     0.047690000000     0.106350000000     0.0361794  
H89      H      0.262150000000     0.915170000000     0.263690000000     0.0395245  
H90      H      0.281810000000     0.089050000000     0.127660000000     0.0351484  
H91      H      0.227060000000     0.955960000000     0.253780000000     0.0361292  
H92      H      0.267290000000     0.957290000000     0.260300000000     0.0366055  
H93      H      0.285020000000     0.039620000000     0.216940000000     0.0451393  
H94      H      0.276440000000     0.039520000000     0.098420000000     0.0400277  
H95      H      0.199720000000     0.906640000000     0.210030000000     0.0391845  
H96      H      0.447200000000     0.382440000000     0.044710000000     0.041085   
H97      H      0.366070000000     0.289030000000     0.029540000000     0.0347724  
H98      H      0.439340000000     0.296540000000     0.022730000000     0.039198   
H99      H      0.444710000000     0.433380000000     0.938570000000     0.037226   
H100     H      0.363720000000     0.259110000000     0.072610000000     0.0391802  
H101     H      0.484680000000     0.395360000000     0.968540000000     0.0345811  
H102     H      0.419240000000     0.403010000000     0.984580000000     0.0346623  
H103     H      0.512010000000     0.442290000000     0.961370000000     0.0413616  
H104     H      0.427140000000     0.338700000000     0.067970000000     0.0448711  
H105     H      0.346540000000     0.241310000000     0.034130000000     0.0410171  
H106     H      0.424180000000     0.353230000000     0.937760000000     0.04439    
H107     H      0.373710000000     0.274190000000     0.993570000000     0.0361015  
H108     H      0.446110000000     0.450490000000     0.978540000000     0.0407487  
H109     H      0.420340000000     0.262530000000     0.063480000000     0.033896   
H110     H      0.483600000000     0.412820000000     0.006990000000     0.0384553  
H111     H      0.445040000000     0.417180000000     0.016560000000     0.0379204  
H112     H      0.404320000000     0.309630000000     0.960810000000     0.0401022  
H113     H      0.415980000000     0.280660000000     0.988180000000     0.0403992  
H114     H      0.487780000000     0.427840000000     0.927590000000     0.0368727  
H115     H      0.722150000000     0.881260000000     0.651490000000     0.0405284  
H116     H      0.758440000000     0.867120000000     0.537090000000     0.0349637  
H117     H      0.682220000000     0.843080000000     0.517980000000     0.0428243  
H118     H      0.730390000000     0.825470000000     0.748290000000     0.0377434  
H119     H      0.749850000000     0.883070000000     0.483410000000     0.0426304  
H120     H      0.673850000000     0.831110000000     0.690400000000     0.0346774  
H121     H      0.751530000000     0.849610000000     0.694670000000     0.0345512  
H122     H      0.674250000000     0.839350000000     0.755980000000     0.0410989  
H123     H      0.723910000000     0.885870000000     0.586120000000     0.0447137  
H124     H      0.759650000000     0.860900000000     0.469930000000     0.0371832  
H125     H      0.707910000000     0.804390000000     0.640340000000     0.0444502  
H126     H      0.740600000000     0.834460000000     0.522950000000     0.0402526  
H127     H      0.752910000000     0.857830000000     0.760330000000     0.0410659  
H128     H      0.679560000000     0.822920000000     0.465220000000     0.0339332  
H129     H      0.697690000000     0.863060000000     0.702970000000     0.0381503  
H130     H      0.743750000000     0.874010000000     0.705350000000     0.0382749  
H131     H      0.710770000000     0.809460000000     0.574880000000     0.0427344  
H132     H      0.682090000000     0.815760000000     0.534710000000     0.0385837  
H133     H      0.679960000000     0.813700000000     0.745600000000     0.0368459  
H134     H      0.717620000000     0.864750000000     0.137790000000     0.0411159  
H135     H      0.684850000000     0.899200000000     0.026400000000     0.0352326  
H136     H      0.762760000000     0.920380000000     0.034640000000     0.039083   
H137     H      0.682650000000     0.888550000000     0.242180000000     0.0373478  
H138     H      0.686360000000     0.888680000000     0.968570000000     0.0417637  
H139     H      0.755360000000     0.923740000000     0.189810000000     0.0346085  
H140     H      0.676400000000     0.869030000000     0.184050000000     0.0346228  
H141     H      0.756390000000     0.912730000000     0.254050000000     0.0408912  
H142     H      0.719960000000     0.868060000000     0.072360000000     0.0460104  
H143     H      0.699970000000     0.921960000000     0.961050000000     0.036384   
H144     H      0.718980000000     0.936500000000     0.143940000000     0.0443751  
H145     H      0.709600000000     0.931690000000     0.020530000000     0.0334286  
H146     H      0.677130000000     0.856840000000     0.248250000000     0.0410356  
H147     H      0.757590000000     0.904640000000     0.977770000000     0.0374964  
H148     H      0.744980000000     0.890490000000     0.196590000000     0.0386192  
H149     H      0.699150000000     0.858670000000     0.193310000000     0.0373523  
H150     H      0.723080000000     0.940660000000     0.078750000000     0.0402041  
H151     H      0.753060000000     0.943300000000     0.025040000000     0.0400643  
H152     H      0.736680000000     0.926660000000     0.245610000000     0.0384938  
H153     H      0.794540000000     0.763690000000     0.203640000000     0.0408734  
H154     H      0.729600000000     0.764700000000     0.294630000000     0.034635   
H155     H      0.804850000000     0.826200000000     0.306390000000     0.039198   
H156     H      0.798150000000     0.684050000000     0.243610000000     0.0387085  
H157     H      0.723220000000     0.800040000000     0.290370000000     0.0398917  
H158     H      0.845390000000     0.766510000000     0.241130000000     0.0344742  
H159     H      0.771110000000     0.702060000000     0.235350000000     0.0344626  
H160     H      0.862090000000     0.743510000000     0.202740000000     0.0401587  
H161     H      0.777450000000     0.790270000000     0.226580000000     0.044852   
H162     H      0.713870000000     0.787880000000     0.334680000000     0.0403821  
H163     H      0.796740000000     0.738790000000     0.311010000000     0.0446434  
H164     H      0.744260000000     0.773660000000     0.338140000000     0.036761   
H165     H      0.788460000000     0.679380000000     0.197620000000     0.0398965  
H166     H      0.784170000000     0.849880000000     0.307590000000     0.0339156  
H167     H      0.829730000000     0.755530000000     0.198470000000     0.0365066  
H168     H      0.787400000000     0.718760000000     0.195200000000     0.0369458  
H169     H      0.779140000000     0.764710000000     0.333860000000     0.0403823  
H170     H      0.787830000000     0.806370000000     0.343710000000     0.0402564  
H171     H      0.852980000000     0.731600000000     0.247340000000     0.0381123  
H172     H      0.648870000000     0.960830000000     0.387830000000     0.0408936  
H173     H      0.583070000000     0.954100000000     0.483710000000     0.0347575  
H174     H      0.651260000000     0.025240000000     0.482040000000     0.039006   
H175     H      0.657550000000     0.885730000000     0.430260000000     0.0389195  
H176     H      0.565770000000     0.980730000000     0.476010000000     0.0404628  
H177     H      0.703770000000     0.968570000000     0.427050000000     0.0347081  
H178     H      0.630200000000     0.903120000000     0.421020000000     0.0345291  
H179     H      0.721430000000     0.945760000000     0.389750000000     0.0399852  
H180     H      0.627290000000     0.983690000000     0.409080000000     0.0451398  
H181     H      0.563260000000     0.974760000000     0.522980000000     0.0397197  
H182     H      0.658920000000     0.944310000000     0.496920000000     0.0448503  
H183     H      0.599370000000     0.969250000000     0.524530000000     0.03588    
H184     H      0.648520000000     0.881040000000     0.384040000000     0.0402197  
H185     H      0.623700000000     0.041340000000     0.480580000000     0.0346288  
H186     H      0.688420000000     0.957030000000     0.384340000000     0.0367178  
H187     H      0.646610000000     0.919700000000     0.380880000000     0.0364998  
H188     H      0.637790000000     0.967410000000     0.518210000000     0.0402944  
H189     H      0.639060000000     0.007710000000     0.522810000000     0.0400317  
H190     H      0.712310000000     0.934360000000     0.434570000000     0.0397395  
H191     H      0.006800000000     0.466110000000     0.678850000000     0.0406     
H192     H      0.040080000000     0.524490000000     0.802200000000     0.0431406  
H193     H      0.961820000000     0.478460000000     0.785040000000     0.0398076  
H194     H      0.044370000000     0.525110000000     0.576310000000     0.0387805  
H195     H      0.034850000000     0.548660000000     0.847960000000     0.0411931  
H196     H      0.968370000000     0.486960000000     0.623940000000     0.0343255  
H197     H      0.046720000000     0.509210000000     0.633920000000     0.0345965  
H198     H      0.969560000000     0.476570000000     0.558830000000     0.0391142  
H199     H      0.005040000000     0.468210000000     0.744270000000     0.0459351  
H200     H      0.006080000000     0.545070000000     0.828750000000     0.033447   
H201     H      0.001880000000     0.534560000000     0.670080000000     0.0446114  
H202     H      0.029860000000     0.543820000000     0.779450000000     0.0328969  
H203     H      0.047130000000     0.497380000000     0.569010000000     0.0409572  
H204     H      0.974650000000     0.473010000000     0.842880000000     0.0386044  
H205     H      0.978920000000     0.464250000000     0.616460000000     0.0370834  
H206     H      0.023580000000     0.476860000000     0.622130000000     0.0359895  
H207     H      0.998220000000     0.535520000000     0.735440000000     0.0407922  
H208     H      0.972120000000     0.511700000000     0.791360000000     0.041235   
H209     H      0.987510000000     0.509810000000     0.569680000000     0.040514   
H210     H      0.991630000000     0.469480000000     0.219040000000     0.0401685  
H211     H      0.045680000000     0.522450000000     0.094060000000     0.0434909  
H212     H      0.027950000000     0.448330000000     0.116880000000     0.0396901  
H213     H      0.023420000000     0.521380000000     0.321290000000     0.0380503  
H214     H      0.077210000000     0.528880000000     0.050500000000     0.0410363  
H215     H      0.053980000000     0.475030000000     0.277780000000     0.0334203  
H216     H      0.003060000000     0.503830000000     0.265600000000     0.0343079  
H217     H      0.045730000000     0.470630000000     0.343580000000     0.0396228  
H218     H      0.996210000000     0.469200000000     0.154320000000     0.0458844  
H219     H      0.085130000000     0.507350000000     0.072180000000     0.0336205  
H220     H      0.073890000000     0.508370000000     0.230400000000     0.0427445  
H221     H      0.072500000000     0.525680000000     0.118570000000     0.0325237  
H222     H      0.992170000000     0.495700000000     0.331570000000     0.0412405  
H223     H      0.016050000000     0.454030000000     0.058400000000     0.0389699  
H224     H      0.020590000000     0.455570000000     0.288320000000     0.0391193  
H225     H      0.991420000000     0.471470000000     0.280420000000     0.036755   
H226     H      0.077970000000     0.505080000000     0.165760000000     0.0408316  
H227     H      0.061600000000     0.469930000000     0.110240000000     0.0416058  
H228     H      0.061880000000     0.503010000000     0.328080000000     0.0398732  
H229     H      0.908170000000     0.586000000000     0.036270000000     0.0409579  
H230     H      0.990850000000     0.582660000000     0.031420000000     0.0344496  
H231     H      0.926770000000     0.508990000000     0.042480000000     0.0394566  
H232     H      0.925490000000     0.637680000000     0.152040000000     0.0383001  
H233     H      0.995490000000     0.560780000000     0.982130000000     0.0404475  
H234     H      0.873360000000     0.563220000000     0.110430000000     0.0347025  
H235     H      0.944850000000     0.631000000000     0.100130000000     0.0342728  
H236     H      0.852600000000     0.589380000000     0.125840000000     0.0404666  
H237     H      0.928100000000     0.564710000000     0.004810000000     0.0453087  
H238     H      0.017840000000     0.563030000000     0.015330000000     0.0399732  
H239     H      0.936880000000     0.575390000000     0.136640000000     0.0446608  
H240     H      0.990900000000     0.560610000000     0.063750000000     0.0363637  
H241     H      0.924360000000     0.656920000000     0.116370000000     0.0405189  
H242     H      0.946780000000     0.500040000000     0.995870000000     0.0351435  
H243     H      0.877520000000     0.586600000000     0.077230000000     0.0367522  
H244     H      0.918550000000     0.625630000000     0.071500000000     0.0371265  
H245     H      0.957130000000     0.554590000000     0.105370000000     0.0403149  
H246     H      0.953320000000     0.520240000000     0.072680000000     0.040047   
H247     H      0.874120000000     0.589500000000     0.159010000000     0.0386771  
H248     H      0.360430000000     0.169890000000     0.781250000000     0.0413549  
H249     H      0.391850000000     0.180160000000     0.910600000000     0.0352041  
H250     H      0.310900000000     0.141670000000     0.903680000000     0.0404175  
H251     H      0.369470000000     0.252310000000     0.730160000000     0.0361664  
H252     H      0.373680000000     0.141170000000     0.946720000000     0.0372084  
H253     H      0.312010000000     0.181330000000     0.766380000000     0.0350024  
H254     H      0.390840000000     0.237080000000     0.770330000000     0.0348397  
H255     H      0.310550000000     0.189130000000     0.701150000000     0.0401354  
H256     H      0.359640000000     0.149030000000     0.837900000000     0.0445451  
H257     H      0.389870000000     0.168840000000     0.974830000000     0.0423595  
H258     H      0.347820000000     0.224440000000     0.838540000000     0.0441508  
H259     H      0.375330000000     0.192550000000     0.936720000000     0.0407926  
H260     H      0.390590000000     0.245390000000     0.704640000000     0.0409363  
H261     H      0.326180000000     0.118550000000     0.941130000000     0.0299517  
H262     H      0.334020000000     0.175680000000     0.740700000000     0.0397888  
H263     H      0.381370000000     0.209050000000     0.743400000000     0.0395171  
H264     H      0.348300000000     0.204280000000     0.895390000000     0.0419335  
H265     H      0.326160000000     0.168960000000     0.933160000000     0.0459762  
H266     H      0.319310000000     0.216770000000     0.728090000000     0.0340086  
H267     H      0.351560000000     0.232440000000     0.291860000000     0.0408659  
H268     H      0.314300000000     0.179260000000     0.414290000000     0.0348355  
H269     H      0.393060000000     0.233310000000     0.408340000000     0.0391884  
H270     H      0.315700000000     0.161780000000     0.203070000000     0.0395628  
H271     H      0.321360000000     0.205480000000     0.465380000000     0.0384752  
H272     H      0.390460000000     0.205710000000     0.257870000000     0.0343926  
H273     H      0.312270000000     0.184510000000     0.252290000000     0.0348566  
H274     H      0.392720000000     0.207970000000     0.190060000000     0.0393232  
H275     H      0.352030000000     0.238820000000     0.356810000000     0.0448684  
H276     H      0.318050000000     0.176020000000     0.480660000000     0.0417045  
H277     H      0.352380000000     0.162500000000     0.309500000000     0.0448383  
H278     H      0.337720000000     0.170880000000     0.428450000000     0.036792   
H279     H      0.316670000000     0.189300000000     0.183990000000     0.0403004  
H280     H      0.381370000000     0.245130000000     0.462770000000     0.0343079  
H281     H      0.380670000000     0.226640000000     0.238110000000     0.0371643  
H282     H      0.336630000000     0.214900000000     0.235430000000     0.0356923  
H283     H      0.354510000000     0.169650000000     0.374100000000     0.0405266  
H284     H      0.382410000000     0.201140000000     0.422400000000     0.0416014  
H285     H      0.375300000000     0.176710000000     0.208970000000     0.0404765  
H286     H      0.463190000000     0.111220000000     0.623170000000     0.044959   
H287     H      0.384190000000     0.116460000000     0.589970000000     0.0347505  
H288     H      0.453580000000     0.186510000000     0.591350000000     0.0395402  
H289     H      0.478410000000     0.057710000000     0.576420000000     0.0399936  
H290     H      0.368020000000     0.142770000000     0.573840000000     0.0411834  
H291     H      0.511250000000     0.138160000000     0.551000000000     0.0347853  
H292     H      0.444870000000     0.065470000000     0.558640000000     0.0345298  
H293     H      0.534840000000     0.117510000000     0.522790000000     0.0402839  
H294     H      0.437590000000     0.131600000000     0.634630000000     0.0402833  
H295     H      0.363390000000     0.140270000000     0.621050000000     0.0377047  
H296     H      0.456930000000     0.119420000000     0.509600000000     0.0409253  
H297     H      0.397770000000     0.132830000000     0.631300000000     0.0352695  
H298     H      0.469380000000     0.045630000000     0.531870000000     0.0397958  
H299     H      0.428430000000     0.204310000000     0.581180000000     0.0365504  
H300     H      0.496780000000     0.119600000000     0.511310000000     0.0363621  
H301     H      0.459170000000     0.078190000000     0.515710000000     0.0367351  
H302     H      0.431860000000     0.140560000000     0.521040000000     0.0455322  
H303     H      0.438070000000     0.170630000000     0.631920000000     0.0395813  
H304     H      0.528100000000     0.111830000000     0.569570000000     0.0386281  
H305     H      0.145740000000     0.417030000000     0.890090000000     0.0412179  
H306     H      0.127090000000     0.492680000000     0.871460000000     0.0346864  
H307     H      0.062740000000     0.418720000000     0.867330000000     0.0395688  
H308     H      0.199700000000     0.422530000000     0.782480000000     0.0368527  
H309     H      0.101940000000     0.496950000000     0.915330000000     0.0411112  
H310     H      0.123800000000     0.376530000000     0.817870000000     0.0347898  
H311     H      0.192310000000     0.447710000000     0.826280000000     0.0345492  
H312     H      0.148800000000     0.354020000000     0.813010000000     0.0413736  
H313     H      0.119630000000     0.434750000000     0.912580000000     0.0458987  
H314     H      0.095810000000     0.510020000000     0.876330000000     0.0386267  
H315     H      0.134920000000     0.434940000000     0.782080000000     0.0442771  
H316     H      0.103380000000     0.483920000000     0.836910000000     0.0354725  
H317     H      0.218290000000     0.426050000000     0.821850000000     0.0408901  
H318     H      0.045140000000     0.434950000000     0.906680000000     0.0364122  
H319     H      0.144500000000     0.382160000000     0.855790000000     0.0384043  
H320     H      0.184890000000     0.424190000000     0.860800000000     0.0382032  
H321     H      0.108950000000     0.452740000000     0.804460000000     0.0401427  
H322     H      0.069040000000     0.441490000000     0.832590000000     0.0397793  
H323     H      0.154520000000     0.375750000000     0.776850000000     0.036686   
H324     H      0.271070000000     0.294710000000     0.661280000000     0.0444022  
H325     H      0.315690000000     0.331840000000     0.783160000000     0.0352861  
H326     H      0.248270000000     0.259850000000     0.793360000000     0.0403043  
H327     H      0.318940000000     0.287940000000     0.574770000000     0.0353801  
H328     H      0.302980000000     0.322240000000     0.846150000000     0.0347567  
H329     H      0.262750000000     0.235530000000     0.639430000000     0.0349079  
H330     H      0.332570000000     0.305970000000     0.634730000000     0.0353469  
H331     H      0.277590000000     0.217900000000     0.590350000000     0.0407326  
H332     H      0.264230000000     0.304790000000     0.722500000000     0.0423914  
H333     H      0.301470000000     0.349810000000     0.832530000000     0.0414558  
H334     H      0.313590000000     0.260440000000     0.702940000000     0.0421192  
H335     H      0.286340000000     0.331400000000     0.772300000000     0.0423064  
H336     H      0.348510000000     0.289100000000     0.585850000000     0.0411341  
H337     H      0.266420000000     0.281570000000     0.850920000000     0.0289461  
H338     H      0.291090000000     0.234400000000     0.651730000000     0.0411005  
H339     H      0.335130000000     0.278830000000     0.648810000000     0.0418687  
H340     H      0.307130000000     0.270920000000     0.763990000000     0.0444606  
H341     H      0.243360000000     0.285730000000     0.779510000000     0.0469462  
H342     H      0.277730000000     0.246600000000     0.577550000000     0.0353477  
H343     H      0.479980000000     0.486500000000     0.766100000000     0.0408678  
H344     H      0.482650000000     0.524270000000     0.632300000000     0.0347132  
H345     H      0.512270000000     0.474980000000     0.651470000000     0.0394537  
H346     H      0.522710000000     0.563210000000     0.844160000000     0.0367419  
H347     H      0.466290000000     0.490580000000     0.587260000000     0.0359378  
H348     H      0.548100000000     0.518060000000     0.790380000000     0.0343851  
H349     H      0.491190000000     0.539420000000     0.798700000000     0.0344793  
H350     H      0.552220000000     0.518700000000     0.856810000000     0.0405897  
H351     H      0.469560000000     0.473910000000     0.703290000000     0.0442547  
H352     H      0.486120000000     0.520900000000     0.566800000000     0.0407209  
H353     H      0.546830000000     0.556100000000     0.733160000000     0.0442761  
H354     H      0.515160000000     0.534900000000     0.618690000000     0.0399184  
H355     H      0.494130000000     0.539460000000     0.865690000000     0.0409706  
H356     H      0.484900000000     0.460370000000     0.598190000000     0.0307576  
H357     H      0.518280000000     0.496940000000     0.812410000000     0.0385552  
H358     H      0.485010000000     0.509380000000     0.817400000000     0.0375542  
H359     H      0.537400000000     0.542760000000     0.670620000000     0.0411243  
H360     H      0.533090000000     0.505610000000     0.631270000000     0.0435633  
H361     H      0.561290000000     0.549360000000     0.837860000000     0.0376519  
H362     H      0.513690000000     0.503690000000     0.278550000000     0.0410201  
H363     H      0.506480000000     0.535280000000     0.155970000000     0.0346467  
H364     H      0.521120000000     0.481060000000     0.129120000000     0.0428843  
H365     H      0.586410000000     0.573950000000     0.350360000000     0.0364577  
H366     H      0.491380000000     0.507540000000     0.102800000000     0.0390631  
H367     H      0.568910000000     0.505490000000     0.302420000000     0.034915   
H368     H      0.555540000000     0.568020000000     0.303770000000     0.0345964  
H369     H      0.570880000000     0.505640000000     0.369140000000     0.041193   
H370     H      0.497790000000     0.493150000000     0.216900000000     0.0440732  
H371     H      0.507910000000     0.540550000000     0.090360000000     0.0387339  
H372     H      0.588840000000     0.557090000000     0.238820000000     0.0444425  
H373     H      0.538850000000     0.551090000000     0.139800000000     0.0418125  
H374     H      0.557260000000     0.569150000000     0.370520000000     0.0408913  
H375     H      0.548910000000     0.500580000000     0.080860000000     0.0321293  
H376     H      0.539700000000     0.500570000000     0.322920000000     0.0396816  
H377     H      0.531570000000     0.538480000000     0.323580000000     0.0393105  
H378     H      0.572670000000     0.547090000000     0.177270000000     0.0456299  
H379     H      0.551400000000     0.499590000000     0.149200000000     0.039045   
H380     H      0.594620000000     0.535070000000     0.349450000000     0.0360428  
H381     H      0.828480000000     0.193860000000     0.906560000000     0.0439585  
H382     H      0.898470000000     0.181580000000     0.814410000000     0.0348637  
H383     H      0.818110000000     0.147160000000     0.806100000000     0.0386145  
H384     H      0.817430000000     0.156910000000     0.022430000000     0.0367226  
H385     H      0.898540000000     0.191420000000     0.755070000000     0.0404765  
H386     H      0.863060000000     0.218710000000     0.954750000000     0.0347374  
H387     H      0.832390000000     0.139700000000     0.975700000000     0.0345822  
H388     H      0.869600000000     0.228230000000     0.019720000000     0.0414178  
H389     H      0.835140000000     0.190810000000     0.842400000000     0.0450373  
H390     H      0.895710000000     0.160880000000     0.750800000000     0.0387225  
H391     H      0.871230000000     0.155760000000     0.930000000000     0.0405364  
H392     H      0.878490000000     0.147820000000     0.807400000000     0.0339178  
H393     H      0.839580000000     0.148560000000     0.041410000000     0.04133    
H394     H      0.828380000000     0.164100000000     0.748830000000     0.0359951  
H395     H      0.883290000000     0.207910000000     0.974340000000     0.0411713  
H396     H      0.865410000000     0.161720000000     0.987190000000     0.0392707  
H397     H      0.875390000000     0.150410000000     0.867190000000     0.0398693  
H398     H      0.834170000000     0.129080000000     0.803110000000     0.0411284  
H399     H      0.836500000000     0.207640000000     0.008210000000     0.0379096  
H400     H      0.861880000000     0.176310000000     0.406920000000     0.0411983  
H401     H      0.884370000000     0.235330000000     0.282420000000     0.0428088  
H402     H      0.922980000000     0.196080000000     0.307440000000     0.0399295  
H403     H      0.878380000000     0.228560000000     0.516400000000     0.0355854  
H404     H      0.912490000000     0.258570000000     0.235350000000     0.0410722  
H405     H      0.922640000000     0.202100000000     0.458690000000     0.0346476  
H406     H      0.859910000000     0.215270000000     0.457880000000     0.0345613  
H407     H      0.913130000000     0.187360000000     0.522230000000     0.0409106  
H408     H      0.866560000000     0.179820000000     0.341710000000     0.0463886  
H409     H      0.939500000000     0.259580000000     0.256780000000     0.0319356  
H410     H      0.929880000000     0.249790000000     0.418340000000     0.0441094  
H411     H      0.913350000000     0.256990000000     0.304910000000     0.0326443  
H412     H      0.849210000000     0.198870000000     0.521380000000     0.0406687  
H413     H      0.905710000000     0.186710000000     0.248810000000     0.0380127  
H414     H      0.890590000000     0.175930000000     0.465100000000     0.0388505  
H415     H      0.854400000000     0.183400000000     0.464480000000     0.0372205  
H416     H      0.935530000000     0.252370000000     0.353150000000     0.0407711  
H417     H      0.943200000000     0.229700000000     0.299150000000     0.040899   
H418     H      0.923240000000     0.220480000000     0.516160000000     0.0379979  
H419     H      0.177430000000     0.350860000000     0.638080000000     0.0411476  
H420     H      0.188000000000     0.384290000000     0.511760000000     0.0348937  
H421     H      0.152560000000     0.303700000000     0.511880000000     0.0402345  
H422     H      0.262220000000     0.363620000000     0.687920000000     0.0360053  
H423     H      0.149430000000     0.366430000000     0.474580000000     0.0373801  
H424     H      0.191020000000     0.304820000000     0.655120000000     0.0349702  
H425     H      0.245810000000     0.383560000000     0.647090000000     0.0344231  
H426     H      0.199910000000     0.305290000000     0.720460000000     0.0405218  
H427     H      0.156610000000     0.349970000000     0.581300000000     0.0444149  
H428     H      0.177540000000     0.384560000000     0.447720000000     0.0422649  
H429     H      0.234050000000     0.341150000000     0.580950000000     0.0441458  
H430     H      0.201850000000     0.369840000000     0.484170000000     0.0403584  
H431     H      0.255470000000     0.385170000000     0.712450000000     0.0402067  
H432     H      0.128330000000     0.318430000000     0.475870000000     0.0298375  
H433     H      0.185170000000     0.327020000000     0.679810000000     0.0394414  
H434     H      0.218020000000     0.374330000000     0.674720000000     0.0389125  
H435     H      0.214010000000     0.341690000000     0.523990000000     0.0416211  
H436     H      0.180320000000     0.321310000000     0.483660000000     0.0451286  
H437     H      0.227330000000     0.313720000000     0.692920000000     0.03391    
H438     H      0.231770000000     0.403920000000     0.121190000000     0.0401077  
H439     H      0.257820000000     0.386830000000     0.008050000000     0.0343997  
H440     H      0.192350000000     0.376140000000     0.971330000000     0.0434991  
H441     H      0.179130000000     0.321570000000     0.207930000000     0.0393011  
H442     H      0.248300000000     0.396630000000     0.948120000000     0.0404672  
H443     H      0.188380000000     0.389460000000     0.157390000000     0.0343606  
H444     H      0.211690000000     0.334040000000     0.162800000000     0.0339273  
H445     H      0.187930000000     0.390920000000     0.224860000000     0.0410134  
H446     H      0.238770000000     0.408970000000     0.056720000000     0.0437546  
H447     H      0.260990000000     0.375520000000     0.945030000000     0.0374869  
H448     H      0.179920000000     0.323380000000     0.106570000000     0.043647   
H449     H      0.238450000000     0.353160000000     0.000710000000     0.0428947  
H450     H      0.209470000000     0.334460000000     0.230110000000     0.0387265  
H451     H      0.180420000000     0.340610000000     0.933780000000     0.0317277  
H452     H      0.218120000000     0.396820000000     0.178960000000     0.0367318  
H453     H      0.231250000000     0.365180000000     0.181950000000     0.038464   
H454     H      0.189170000000     0.328230000000     0.042370000000     0.0452787  
H455     H      0.176890000000     0.349270000000     0.999340000000     0.0384134  
H456     H      0.163340000000     0.362160000000     0.205130000000     0.0368382  
H457     H      0.077990000000     0.298790000000     0.194760000000     0.0413949  
H458     H      0.996710000000     0.223930000000     0.139360000000     0.0363802  
H459     H      0.002360000000     0.295800000000     0.121690000000     0.040942   
H460     H      0.071000000000     0.281050000000     0.327170000000     0.0369161  
H461     H      0.983240000000     0.226780000000     0.078350000000     0.035011   
H462     H      0.065340000000     0.332930000000     0.260440000000     0.0347191  
H463     H      0.060560000000     0.260740000000     0.268590000000     0.0354424  
H464     H      0.102360000000     0.351850000000     0.302540000000     0.0413058  
H465     H      0.052100000000     0.283570000000     0.140060000000     0.0448638  
H466     H      0.956760000000     0.202150000000     0.102430000000     0.0420091  
H467     H      0.009600000000     0.274970000000     0.257030000000     0.0444754  
H468     H      0.971030000000     0.227260000000     0.158200000000     0.0447624  
H469     H      0.097610000000     0.278540000000     0.310740000000     0.0418997  
H470     H      0.988150000000     0.267340000000     0.069010000000     0.0286853  
H471     H      0.091980000000     0.330090000000     0.244230000000     0.0389037  
H472     H      0.089140000000     0.286610000000     0.249210000000     0.0395876  
H473     H      0.983830000000     0.260460000000     0.202220000000     0.045832   
H474     H      0.974290000000     0.273170000000     0.146210000000     0.0486881  
H475     H      0.073890000000     0.326280000000     0.322160000000     0.0370969  
H476     H      0.367940000000     0.431310000000     0.459030000000     0.0449496  
H477     H      0.299360000000     0.370870000000     0.374060000000     0.0345868  
H478     H      0.305490000000     0.443270000000     0.381140000000     0.0390914  
H479     H      0.444230000000     0.443550000000     0.452050000000     0.0403151  
H480     H      0.266840000000     0.367190000000     0.334540000000     0.0392642  
H481     H      0.410420000000     0.490090000000     0.417660000000     0.0343384  
H482     H      0.412420000000     0.421520000000     0.407910000000     0.0346776  
H483     H      0.458980000000     0.514460000000     0.421500000000     0.0391568  
H484     H      0.323060000000     0.411510000000     0.441030000000     0.0401478  
H485     H      0.251430000000     0.350360000000     0.374550000000     0.0409168  
H486     H      0.391130000000     0.449080000000     0.348830000000     0.0405119  
H487     H      0.286190000000     0.378850000000     0.411830000000     0.0362525  
H488     H      0.461320000000     0.447520000000     0.411300000000     0.0391872  
H489     H      0.268890000000     0.422820000000     0.344970000000     0.0335968  
H490     H      0.426890000000     0.485340000000     0.380920000000     0.0357138  
H491     H      0.427830000000     0.446530000000     0.375240000000     0.0356079  
H492     H      0.346010000000     0.429320000000     0.330600000000     0.0446338  
H493     H      0.292220000000     0.420860000000     0.417280000000     0.0402233  
H494     H      0.442260000000     0.496140000000     0.459970000000     0.0393149  
H495     H      0.543930000000     0.053050000000     0.819630000000     0.0414951  
H496     H      0.591800000000     0.095220000000     0.692010000000     0.034877   
H497     H      0.546770000000     0.015540000000     0.705270000000     0.038794   
H498     H      0.613990000000     0.095370000000     0.908690000000     0.036422   
H499     H      0.562530000000     0.083190000000     0.643510000000     0.0380666  
H500     H      0.585840000000     0.027330000000     0.851180000000     0.0343316  
H501     H      0.590310000000     0.099410000000     0.858770000000     0.0352819  
H502     H      0.582710000000     0.022490000000     0.917270000000     0.0411761  
H503     H      0.535110000000     0.050470000000     0.755290000000     0.0446326  
H504     H      0.592360000000     0.089120000000     0.625330000000     0.041879   
H505     H      0.620760000000     0.069360000000     0.797540000000     0.0442489  
H506     H      0.603590000000     0.074560000000     0.677710000000     0.0367919  
H507     H      0.586020000000     0.095120000000     0.925550000000     0.0416339  
H508     H      0.528960000000     0.021650000000     0.652120000000     0.0340565  
H509     H      0.558590000000     0.028620000000     0.868470000000     0.0400247  
H510     H      0.561190000000     0.071590000000     0.873120000000     0.039697   
H511     H      0.611370000000     0.064870000000     0.733430000000     0.0405498  
H512     H      0.578730000000     0.029760000000     0.687760000000     0.0417371  
H513     H      0.611820000000     0.050070000000     0.903060000000     0.0367703  
H514     H      0.547730000000     0.072340000000     0.288160000000     0.0399206  
H515     H      0.546520000000     0.015860000000     0.165760000000     0.0425984  
H516     H      0.491880000000     0.036970000000     0.185120000000     0.0392245  
H517     H      0.569890000000     0.043250000000     0.390270000000     0.0382725  
H518     H      0.521530000000     0.985200000000     0.121390000000     0.0408447  
H519     H      0.491470000000     0.009730000000     0.348940000000     0.0329835  
H520     H      0.570510000000     0.062440000000     0.334750000000     0.0342221  
H521     H      0.496180000000     0.018300000000     0.414850000000     0.0382252  
H522     H      0.543100000000     0.067120000000     0.223560000000     0.0452307  
H523     H      0.491920000000     0.978490000000     0.141590000000     0.033784   
H524     H      0.503990000000     0.990500000000     0.301150000000     0.0424207  
H525     H      0.521650000000     0.989670000000     0.189460000000     0.0323614  
H526     H      0.573510000000     0.073670000000     0.400680000000     0.0411418  
H527     H      0.511000000000     0.048390000000     0.127390000000     0.0380436  
H528     H      0.504450000000     0.042880000000     0.359370000000     0.0384731  
H529     H      0.548920000000     0.073000000000     0.350060000000     0.0363466  
H530     H      0.496620000000     0.985870000000     0.236560000000     0.0407658  
H531     H      0.478710000000     0.003240000000     0.178480000000     0.0416452  
H532     H      0.512850000000     0.002730000000     0.398550000000     0.0400911  
H533     H      0.677600000000     0.113280000000     0.180950000000     0.0445365  
H534     H      0.775980000000     0.187820000000     0.137240000000     0.0403343  
H535     H      0.760090000000     0.117420000000     0.182160000000     0.0393723  
H536     H      0.614040000000     0.098150000000     0.116820000000     0.0386588  
H537     H      0.812260000000     0.211040000000     0.171800000000     0.0416908  
H538     H      0.658990000000     0.061960000000     0.114320000000     0.0347379  
H539     H      0.657810000000     0.131230000000     0.107160000000     0.0345925  
H540     H      0.618660000000     0.039780000000     0.078140000000     0.0409354  
H541     H      0.722560000000     0.136830000000     0.199740000000     0.040534   
H542     H      0.797870000000     0.192250000000     0.210850000000     0.0332882  
H543     H      0.701250000000     0.113730000000     0.071970000000     0.041173   
H544     H      0.760810000000     0.181380000000     0.180340000000     0.0327975  
H545     H      0.617230000000     0.109440000000     0.071600000000     0.0408319  
H546     H      0.803200000000     0.137310000000     0.166750000000     0.0375569  
H547     H      0.661190000000     0.076050000000     0.070970000000     0.0376866  
H548     H      0.660510000000     0.116370000000     0.066860000000     0.0380698  
H549     H      0.746170000000     0.136360000000     0.091010000000     0.0459104  
H550     H      0.763510000000     0.142240000000     0.212180000000     0.0400332  
H551     H      0.614820000000     0.050550000000     0.121150000000     0.0371819  
H552     H      0.190350000000     0.897260000000     0.506740000000     0.040275   
H553     H      0.179830000000     0.855820000000     0.657410000000     0.0439338  
H554     H      0.237800000000     0.918280000000     0.618180000000     0.0396749  
H555     H      0.161840000000     0.831790000000     0.417520000000     0.0385675  
H556     H      0.204130000000     0.837170000000     0.683640000000     0.0400231  
H557     H      0.239350000000     0.877640000000     0.464300000000     0.033617   
H558     H      0.160790000000     0.855560000000     0.466970000000     0.0344051  
H559     H      0.237840000000     0.877640000000     0.396510000000     0.0380218  
H560     H      0.192810000000     0.902810000000     0.571650000000     0.0442932  
H561     H      0.229580000000     0.853610000000     0.651950000000     0.0352815  
H562     H      0.215630000000     0.842230000000     0.516960000000     0.0437706  
H563     H      0.186490000000     0.838770000000     0.624670000000     0.0340909  
H564     H      0.161580000000     0.858760000000     0.398610000000     0.0401993  
H565     H      0.223500000000     0.911130000000     0.680560000000     0.0363423  
H566     H      0.228120000000     0.897690000000     0.445670000000     0.0375101  
H567     H      0.184100000000     0.885610000000     0.447660000000     0.0355095  
H568     H      0.220410000000     0.849780000000     0.581680000000     0.0412564  
H569     H      0.247590000000     0.894650000000     0.620460000000     0.0433806  
H570     H      0.221440000000     0.846970000000     0.417400000000     0.0402996  
H571     H      0.231520000000     0.868470000000     0.096370000000     0.0455527  
H572     H      0.208670000000     0.886680000000     0.978500000000     0.0350655  
H573     H      0.228910000000     0.829400000000     0.971350000000     0.0388584  
H574     H      0.143670000000     0.813100000000     0.182770000000     0.0411045  
H575     H      0.203220000000     0.881120000000     0.917350000000     0.0403046  
H576     H      0.213000000000     0.808310000000     0.119750000000     0.0345386  
H577     H      0.169210000000     0.843350000000     0.139700000000     0.0413984  
H578     H      0.193030000000     0.785790000000     0.180830000000     0.0328352  
H579     H      0.242660000000     0.880780000000     0.033690000000     0.0402485  
H580     H      0.235850000000     0.905480000000     0.919480000000     0.0386464  
H581     H      0.163330000000     0.800360000000     0.063050000000     0.0406676  
H582     H      0.241590000000     0.894570000000     0.977140000000     0.0342166  
H583     H      0.144360000000     0.787480000000     0.160020000000     0.0319353  
H584     H      0.219700000000     0.830230000000     0.911450000000     0.0367264  
H585     H      0.178850000000     0.787370000000     0.121290000000     0.0352995  
H586     H      0.151160000000     0.815390000000     0.113050000000     0.0320759  
H587     H      0.173540000000     0.813490000000     0.000210000000     0.0454417  
H588     H      0.252600000000     0.862500000000     0.974380000000     0.0403639  
H589     H      0.216350000000     0.819050000000     0.180790000000     0.0440018  
H590     H      0.350370000000     0.930210000000     0.898010000000     0.0420411  
H591     H      0.441860000000     0.942430000000     0.925850000000     0.0344865  
H592     H      0.437740000000     0.009710000000     0.915660000000     0.0394901  
H593     H      0.327680000000     0.895590000000     0.771160000000     0.0373296  
H594     H      0.460470000000     0.964780000000     0.980090000000     0.0397104  
H595     H      0.352500000000     0.964550000000     0.823860000000     0.0351054  
H596     H      0.347920000000     0.892280000000     0.825850000000     0.0350571  
H597     H      0.308690000000     0.945260000000     0.797840000000     0.0420716  
H598     H      0.386640000000     0.949810000000     0.939720000000     0.0452328  
H599     H      0.485790000000     0.967630000000     0.952140000000     0.0408078  
H600     H      0.402680000000     0.951080000000     0.809280000000     0.0445524  
H601     H      0.464520000000     0.968270000000     0.898260000000     0.0362071  
H602     H      0.303910000000     0.871770000000     0.799990000000     0.0419941  
H603     H      0.461090000000     0.018800000000     0.969370000000     0.0343558  
H604     H      0.328640000000     0.940100000000     0.852200000000     0.0400884  
H605     H      0.325950000000     0.896770000000     0.853470000000     0.0402688  
H606     H      0.438860000000     0.970210000000     0.850830000000     0.0400375  
H607     H      0.460310000000     0.005280000000     0.889860000000     0.0401932  
H608     H      0.330660000000     0.941250000000     0.770030000000     0.0371112  
H609     H      0.864710000000     0.672830000000     0.948680000000     0.040573   
H610     H      0.854480000000     0.725820000000     0.839660000000     0.0349967  
H611     H      0.811880000000     0.653770000000     0.808600000000     0.0439568  
H612     H      0.803980000000     0.665340000000     0.052000000000     0.0380324  
H613     H      0.837340000000     0.711330000000     0.779370000000     0.040505   
H614     H      0.869860000000     0.719580000000     0.996240000000     0.0346484  
H615     H      0.804080000000     0.645960000000     0.995350000000     0.0346794  
H616     H      0.877730000000     0.713980000000     0.060730000000     0.0410396  
H617     H      0.865050000000     0.674130000000     0.883180000000     0.044593   
H618     H      0.871530000000     0.730220000000     0.778260000000     0.0384286  
H619     H      0.805970000000     0.693610000000     0.950250000000     0.0447288  
H620     H      0.875180000000     0.712530000000     0.836190000000     0.042006   
H621     H      0.810790000000     0.640050000000     0.059830000000     0.0407234  
H622     H      0.841750000000     0.650270000000     0.772810000000     0.0334868  
H623     H      0.873420000000     0.692150000000     0.004550000000     0.0374347  
H624     H      0.834980000000     0.649200000000     0.004030000000     0.038293   
H625     H      0.805430000000     0.693580000000     0.884370000000     0.0448022  
H626     H      0.830020000000     0.647300000000     0.839500000000     0.0387572  
H627     H      0.848870000000     0.714900000000     0.053020000000     0.0372713  
H628     H      0.887860000000     0.706720000000     0.366860000000     0.0408658  
H629     H      0.913390000000     0.676640000000     0.496480000000     0.0333758  
H630     H      0.871760000000     0.715810000000     0.488010000000     0.0396129  
H631     H      0.852910000000     0.619660000000     0.298000000000     0.0374176  
H632     H      0.892060000000     0.668120000000     0.551740000000     0.0432476  
H633     H      0.918670000000     0.685470000000     0.331280000000     0.0345924  
H634     H      0.839010000000     0.636330000000     0.347170000000     0.0346929  
H635     H      0.912650000000     0.680880000000     0.264780000000     0.0406008  
H636     H      0.892930000000     0.721120000000     0.427630000000     0.0393086  
H637     H      0.923610000000     0.693630000000     0.560890000000     0.035291   
H638     H      0.873210000000     0.632880000000     0.402180000000     0.0447095  
H639     H      0.928880000000     0.710550000000     0.501140000000     0.0385481  
H640     H      0.832050000000     0.630600000000     0.281300000000     0.0405467  
H641     H      0.875580000000     0.724260000000     0.546750000000     0.034812   
H642     H      0.896870000000     0.695320000000     0.314390000000     0.0385189  
H643     H      0.849600000000     0.666220000000     0.324340000000     0.0395841  
H644     H      0.876010000000     0.646490000000     0.464560000000     0.0435715  
H645     H      0.905710000000     0.732680000000     0.482160000000     0.0380295  
H646     H      0.903800000000     0.651470000000     0.287300000000     0.0362158  
H647     H      0.692560000000     0.596380000000     0.515680000000     0.0410297  
H648     H      0.750400000000     0.662520000000     0.610550000000     0.0347354  
H649     H      0.753290000000     0.594340000000     0.614170000000     0.0394274  
H650     H      0.603810000000     0.576680000000     0.559050000000     0.0384175  
H651     H      0.794580000000     0.678240000000     0.604340000000     0.0406784  
H652     H      0.649520000000     0.540300000000     0.549540000000     0.0348423  
H653     H      0.647680000000     0.609270000000     0.552480000000     0.0344885  
H654     H      0.609810000000     0.520580000000     0.510960000000     0.041075   
H655     H      0.736720000000     0.619150000000     0.538230000000     0.0455092  
H656     H      0.790080000000     0.683380000000     0.650130000000     0.0397521  
H657     H      0.664320000000     0.584070000000     0.623990000000     0.04458    
H658     H      0.748340000000     0.647000000000     0.652530000000     0.0362539  
H659     H      0.607810000000     0.589270000000     0.514590000000     0.040306   
H660     H      0.797060000000     0.621910000000     0.615200000000     0.0349953  
H661     H      0.652190000000     0.557290000000     0.508660000000     0.0369709  
H662     H      0.651050000000     0.596760000000     0.510350000000     0.0372793  
H663     H      0.708250000000     0.607140000000     0.646530000000     0.0402997  
H664     H      0.746700000000     0.606920000000     0.653540000000     0.0399615  
H665     H      0.605080000000     0.526780000000     0.556350000000     0.0389611  
H666     H      0.013580000000     0.777950000000     0.795230000000     0.0449671  
H667     H      0.102810000000     0.852500000000     0.780000000000     0.0349466  
H668     H      0.097910000000     0.780490000000     0.779760000000     0.0390209  
H669     H      0.951260000000     0.768010000000     0.727800000000     0.0394204  
H670     H      0.145920000000     0.867070000000     0.772670000000     0.0415633  
H671     H      0.997490000000     0.730840000000     0.729120000000     0.0347798  
H672     H      0.994880000000     0.798990000000     0.716920000000     0.0346936  
H673     H      0.956550000000     0.707300000000     0.693340000000     0.0406889  
H674     H      0.058110000000     0.799880000000     0.815620000000     0.0403043  
H675     H      0.143780000000     0.867750000000     0.820140000000     0.037529   
H676     H      0.038920000000     0.784900000000     0.685880000000     0.0410081  
H677     H      0.100440000000     0.836000000000     0.821070000000     0.0350906  
H678     H      0.953860000000     0.774580000000     0.680800000000     0.0404091  
H679     H      0.141480000000     0.802720000000     0.777880000000     0.0354315  
H680     H      0.998470000000     0.743630000000     0.685210000000     0.0366504  
H681     H      0.997110000000     0.782430000000     0.678290000000     0.0367631  
H682     H      0.083620000000     0.806810000000     0.706260000000     0.045307   
H683     H      0.094980000000     0.794570000000     0.820240000000     0.0396835  
H684     H      0.953340000000     0.717120000000     0.737280000000     0.0403265  
N1       N      0.838970000000     0.103580000000     0.611850000000    -0.170282   
N2       N      0.813640000000     0.057100000000     0.650020000000    -0.113334   
N3       N      0.774720000000     0.991500000000     0.771390000000    -0.113747   
N4       N      0.752920000000     0.948180000000     0.816230000000    -0.167295   
N5       N      0.979240000000     0.412350000000     0.452940000000    -0.170283   
N6       N      0.955820000000     0.366890000000     0.493860000000    -0.113423   
N7       N      0.924990000000     0.300740000000     0.614980000000    -0.114128   
N8       N      0.904920000000     0.254320000000     0.652310000000    -0.168002   
N9       N      0.052420000000     0.566300000000     0.447730000000    -0.168983   
N10      N      0.076750000000     0.614710000000     0.418940000000    -0.110514   
N11      N      0.128610000000     0.717550000000     0.369400000000    -0.113398   
N12      N      0.152280000000     0.764220000000     0.332330000000    -0.167126   
N13      N      0.687560000000     0.809330000000     0.909180000000    -0.168788   
N14      N      0.662100000000     0.757140000000     0.924750000000    -0.111184   
N15      N      0.604900000000     0.654830000000     0.975560000000    -0.113806   
N16      N      0.572780000000     0.601620000000     0.981240000000    -0.167427   
N17      N      0.317750000000     0.096060000000     0.108470000000    -0.168751   
N18      N      0.296240000000     0.050850000000     0.147980000000    -0.110977   
N19      N      0.247770000000     0.951640000000     0.210470000000    -0.113186   
N20      N      0.224010000000     0.906510000000     0.250740000000    -0.166723   
N21      N      0.382260000000     0.242710000000     0.044200000000    -0.169122   
N22      N      0.404070000000     0.295480000000     0.030790000000    -0.111673   
N23      N      0.450040000000     0.396290000000     0.974190000000    -0.113936   
N24      N      0.480380000000     0.449490000000     0.965060000000    -0.167555   
N25      N      0.720100000000     0.848150000000     0.462780000000    -0.17063    
N26      N      0.718090000000     0.851300000000     0.537430000000    -0.110824   
N27      N      0.712170000000     0.838270000000     0.689040000000    -0.113802   
N28      N      0.712990000000     0.846930000000     0.763400000000    -0.167521   
N29      N      0.726540000000     0.908660000000     0.959240000000    -0.168379   
N30      N      0.722620000000     0.905370000000     0.031840000000    -0.109708   
N31      N      0.715280000000     0.898750000000     0.184320000000    -0.113574   
N32      N      0.715720000000     0.887290000000     0.257470000000    -0.167176   
N33      N      0.748560000000     0.823730000000     0.330730000000    -0.168733   
N34      N      0.767660000000     0.796010000000     0.294410000000    -0.111382   
N35      N      0.807970000000     0.734230000000     0.243900000000    -0.113434   
N36      N      0.827730000000     0.707200000000     0.207560000000    -0.167025   
N37      N      0.591220000000     0.012490000000     0.507390000000    -0.168912   
N38      N      0.617040000000     0.989840000000     0.476440000000    -0.111063   
N39      N      0.666690000000     0.935810000000     0.429770000000    -0.113281   
N40      N      0.687550000000     0.909220000000     0.394970000000    -0.166867   
N41      N      0.000630000000     0.511880000000     0.855200000000    -0.16994    
N42      N      0.002110000000     0.503460000000     0.783300000000    -0.110489   
N43      N      0.008300000000     0.501610000000     0.631110000000    -0.113108   
N44      N      0.010380000000     0.493400000000     0.557410000000    -0.1669     
N45      N      0.049770000000     0.488600000000     0.044720000000    -0.170132   
N46      N      0.039110000000     0.487690000000     0.116520000000    -0.110782   
N47      N      0.031430000000     0.492740000000     0.268560000000    -0.112457   
N48      N      0.023410000000     0.489240000000     0.343190000000    -0.167086   
N49      N      0.985850000000     0.525640000000     0.006810000000    -0.168606   
N50      N      0.956560000000     0.546720000000     0.032870000000    -0.111387   
N51      N      0.910740000000     0.595590000000     0.108380000000    -0.113558   
N52      N      0.888380000000     0.624370000000     0.131170000000    -0.167097   
N53      N      0.348400000000     0.148850000000     0.976640000000    -0.170343   
N54      N      0.351510000000     0.160910000000     0.903060000000    -0.113236   
N55      N      0.351210000000     0.209580000000     0.772750000000    -0.113926   
N56      N      0.350260000000     0.218830000000     0.698980000000    -0.168516   
N57      N      0.355920000000     0.208660000000     0.484190000000    -0.169149   
N58      N      0.352890000000     0.208960000000     0.408500000000    -0.111922   
N59      N      0.350290000000     0.191420000000     0.258040000000    -0.11293    
N60      N      0.352070000000     0.189040000000     0.183370000000    -0.16675    
N61      N      0.392830000000     0.176380000000     0.602480000000    -0.168824   
N62      N      0.419200000000     0.151410000000     0.584190000000    -0.110482   
N63      N      0.477780000000     0.102420000000     0.560470000000    -0.113244   
N64      N      0.505910000000     0.079610000000     0.537120000000    -0.166875   
N65      N      0.064940000000     0.474160000000     0.893410000000    -0.168655   
N66      N      0.096330000000     0.454460000000     0.874630000000    -0.110695   
N67      N      0.156620000000     0.413600000000     0.819730000000    -0.113937   
N68      N      0.185460000000     0.388770000000     0.813060000000    -0.167581   
N69      N      0.265020000000     0.315050000000     0.838100000000    -0.170574   
N70      N      0.282460000000     0.294930000000     0.784110000000    -0.113495   
N71      N      0.296840000000     0.271730000000     0.641040000000    -0.114211   
N72      N      0.314660000000     0.251920000000     0.587460000000    -0.168315   
N73      N      0.502150000000     0.495840000000     0.570800000000    -0.170508   
N74      N      0.496050000000     0.498780000000     0.645690000000    -0.113141   
N75      N      0.521040000000     0.530890000000     0.790730000000    -0.113799   
N76      N      0.526130000000     0.532780000000     0.865730000000    -0.16794    
N77      N      0.527960000000     0.520370000000     0.080220000000    -0.172774   
N78      N      0.524030000000     0.512480000000     0.156790000000    -0.112351   
N79      N      0.562960000000     0.537270000000     0.298910000000    -0.114043   
N80      N      0.564460000000     0.537620000000     0.374120000000    -0.168394   
N81      N      0.861910000000     0.162220000000     0.738500000000    -0.169647   
N82      N      0.858630000000     0.168790000000     0.811120000000    -0.109971   
N83      N      0.845520000000     0.178370000000     0.961230000000    -0.113101   
N84      N      0.853190000000     0.188820000000     0.035190000000    -0.167861   
N85      N      0.914900000000     0.224040000000     0.232760000000    -0.170895   
N86      N      0.903630000000     0.217360000000     0.304170000000    -0.110373   
N87      N      0.893490000000     0.212120000000     0.456130000000    -0.113529   
N88      N      0.883990000000     0.197630000000     0.528630000000    -0.167626   
N89      N      0.158760000000     0.343440000000     0.442210000000    -0.170236   
N90      N      0.169930000000     0.343920000000     0.515950000000    -0.113215   
N91      N      0.218690000000     0.343880000000     0.646710000000    -0.113974   
N92      N      0.229240000000     0.345070000000     0.720450000000    -0.168619   
N93      N      0.221160000000     0.358740000000     0.933880000000    -0.172308   
N94      N      0.217970000000     0.373300000000     0.006430000000    -0.11203    
N95      N      0.197120000000     0.359430000000     0.156350000000    -0.112809   
N96      N      0.191920000000     0.357730000000     0.231320000000    -0.167351   
N97      N      0.955780000000     0.237070000000     0.094540000000    -0.170939   
N98      N      0.001480000000     0.261160000000     0.134510000000    -0.113146   
N99      N      0.059970000000     0.295450000000     0.263070000000    -0.113916   
N100     N      0.102010000000     0.316260000000     0.310280000000    -0.167712   
N101     N      0.251170000000     0.385270000000     0.365640000000    -0.169098   
N102     N      0.304880000000     0.408390000000     0.372710000000    -0.111722   
N103     N      0.408900000000     0.454220000000     0.417680000000    -0.113117   
N104     N      0.461590000000     0.480890000000     0.430850000000    -0.167072   
N105     N      0.562450000000     0.049880000000     0.626320000000    -0.168694   
N106     N      0.566310000000     0.055820000000     0.701620000000    -0.111767   
N107     N      0.589720000000     0.064270000000     0.851070000000    -0.113839   
N108     N      0.585270000000     0.059030000000     0.926130000000    -0.167537   
N109     N      0.510270000000     0.013810000000     0.114330000000    -0.170051   
N110     N      0.518880000000     0.024080000000     0.186460000000    -0.111045   
N111     N      0.531500000000     0.033170000000     0.338610000000    -0.112235   
N112     N      0.536990000000     0.041210000000     0.413300000000    -0.166944   
N113     N      0.813430000000     0.175930000000     0.176440000000    -0.169358   
N114     N      0.764300000000     0.150910000000     0.156860000000    -0.109728   
N115     N      0.659370000000     0.097290000000     0.115590000000    -0.113627   
N116     N      0.612600000000     0.072020000000     0.078110000000    -0.167419   
N117     N      0.226340000000     0.878020000000     0.689620000000    -0.171684   
N118     N      0.207350000000     0.880110000000     0.619840000000    -0.112443   
N119     N      0.199160000000     0.862940000000     0.468880000000    -0.112555   
N120     N      0.197000000000     0.858700000000     0.394160000000    -0.167075   
N121     N      0.229550000000     0.868800000000     0.904650000000    -0.169153   
N122     N      0.214190000000     0.854680000000     0.974690000000    -0.110438   
N123     N      0.190950000000     0.827020000000     0.121600000000    -0.111447   
N124     N      0.177890000000     0.810320000000     0.189750000000    -0.166609   
N125     N      0.483880000000     0.001880000000     0.959300000000    -0.169013   
N126     N      0.436220000000     0.974370000000     0.923740000000    -0.111782   
N127     N      0.353340000000     0.929800000000     0.824790000000    -0.114001   
N128     N      0.303730000000     0.907310000000     0.795870000000    -0.167601   
N129     N      0.856170000000     0.690350000000     0.769640000000    -0.171865   
N130     N      0.835280000000     0.685460000000     0.840450000000    -0.111927   
N131     N      0.835260000000     0.683970000000     0.993030000000    -0.113567   
N132     N      0.842430000000     0.678260000000     0.066370000000    -0.167455   
N133     N      0.894700000000     0.703970000000     0.560790000000    -0.169101   
N134     N      0.888850000000     0.692680000000     0.489490000000    -0.108457   
N135     N      0.879430000000     0.659970000000     0.343320000000    -0.113807   
N136     N      0.872120000000     0.654050000000     0.268660000000    -0.167805   
N137     N      0.799640000000     0.654290000000     0.640730000000    -0.168853   
N138     N      0.752110000000     0.628370000000     0.606130000000    -0.111101   
N139     N      0.648950000000     0.574880000000     0.556480000000    -0.113504   
N140     N      0.602350000000     0.551460000000     0.518810000000    -0.16711    
N141     N      0.149780000000     0.838330000000     0.799650000000    -0.169024   
N142     N      0.100690000000     0.816590000000     0.773320000000    -0.110441   
N143     N      0.996440000000     0.765450000000     0.728780000000    -0.113235   
N144     N      0.948410000000     0.737980000000     0.695670000000    -0.166734   
O1       O      0.911040000000     0.735310000000     0.676100000000    -0.39715    
O2       O      0.835780000000     0.693010000000     0.650930000000    -0.398343   
O3       O      0.864500000000     0.711230000000     0.715890000000    -0.399598   
O4       O      0.882280000000     0.717170000000     0.610590000000    -0.397339   
O5       O      0.886740000000     0.682860000000     0.614580000000    -0.396771   
O6       O      0.865530000000     0.674980000000     0.719090000000    -0.395046   
O7       O      0.838780000000     0.657840000000     0.652500000000    -0.395274   
O8       O      0.913140000000     0.699740000000     0.681520000000    -0.398713   
O9       O      0.189360000000     0.874560000000     0.799430000000    -0.398487   
O10      O      0.266710000000     0.909080000000     0.799170000000    -0.398967   
O11      O      0.228560000000     0.894760000000     0.745370000000    -0.396667   
O12      O      0.227860000000     0.889040000000     0.853510000000    -0.398215   
O13      O      0.227380000000     0.852110000000     0.848700000000    -0.396041   
O14      O      0.223900000000     0.855950000000     0.740770000000    -0.399322   
O15      O      0.264240000000     0.871340000000     0.792830000000    -0.39859    
O16      O      0.186990000000     0.836670000000     0.797070000000    -0.397025   
O17      O      0.579030000000     0.072150000000     0.049390000000    -0.398594   
O18      O      0.513350000000     0.036260000000     0.992220000000    -0.394665   
O19      O      0.525810000000     0.041990000000     0.067270000000    -0.394348   
O20      O      0.566230000000     0.066180000000     0.974550000000    -0.396598   
O21      O      0.568610000000     0.030670000000     0.972650000000    -0.40008    
O22      O      0.529920000000     0.007420000000     0.066170000000    -0.400641   
O23      O      0.516130000000     0.001000000000     0.991170000000    -0.398409   
O24      O      0.582310000000     0.037120000000     0.047470000000    -0.399406   
O25      O      0.215270000000     0.387100000000     0.348930000000    -0.394648   
O26      O      0.139760000000     0.352190000000     0.324600000000    -0.398919   
O27      O      0.169210000000     0.366040000000     0.389660000000    -0.399107   
O28      O      0.185460000000     0.373180000000     0.283820000000    -0.400099   
O29      O      0.185670000000     0.336480000000     0.284600000000    -0.397227   
O30      O      0.165990000000     0.327850000000     0.389730000000    -0.393307   
O31      O      0.138340000000     0.314730000000     0.323620000000    -0.398277   
O32      O      0.213230000000     0.349410000000     0.351080000000    -0.398642   
O33      O      0.849400000000     0.209890000000     0.152530000000    -0.39864    
O34      O      0.921010000000     0.240610000000     0.111930000000    -0.396624   
O35      O      0.870780000000     0.216870000000     0.081790000000    -0.398652   
O36      O      0.899880000000     0.233760000000     0.182160000000    -0.400319   
O37      O      0.899110000000     0.196630000000     0.185050000000    -0.396533   
O38      O      0.866460000000     0.178230000000     0.086650000000    -0.398408   
O39      O      0.918160000000     0.202610000000     0.113590000000    -0.399022   
O40      O      0.847780000000     0.172470000000     0.158050000000    -0.39756    
O41      O      0.567290000000     0.552190000000     0.496450000000    -0.399273   
O42      O      0.496680000000     0.516750000000     0.452150000000    -0.400557   
O43      O      0.516090000000     0.523680000000     0.523360000000    -0.399868   
O44      O      0.547700000000     0.544980000000     0.424770000000    -0.399904   
O45      O      0.549810000000     0.509370000000     0.420880000000    -0.400929   
O46      O      0.518020000000     0.488080000000     0.519140000000    -0.396198   
O47      O      0.498260000000     0.480860000000     0.447630000000    -0.396864   
O48      O      0.568960000000     0.516330000000     0.492560000000    -0.397692   
O49      O      0.226800000000     0.315150000000     0.835940000000    -0.395279   
O50      O      0.187090000000     0.351910000000     0.819300000000    -0.399494   
O51      O      0.209450000000     0.329660000000     0.774400000000    -0.399985   
O52      O      0.204390000000     0.337370000000     0.881290000000    -0.396746   
O53      O      0.242200000000     0.373190000000     0.880500000000    -0.398303   
O54      O      0.244670000000     0.367820000000     0.772490000000    -0.398489   
O55      O      0.223420000000     0.389140000000     0.820790000000    -0.398436   
O56      O      0.263250000000     0.351940000000     0.832290000000    -0.399467   
O57      O      0.315590000000     0.214550000000     0.587600000000    -0.399968   
O58      O      0.354810000000     0.176520000000     0.597340000000    -0.396848   
O59      O      0.333620000000     0.198050000000     0.646070000000    -0.400867   
O60      O      0.336240000000     0.193260000000     0.538360000000    -0.399863   
O61      O      0.373130000000     0.229930000000     0.537170000000    -0.393634   
O62      O      0.370900000000     0.234400000000     0.645460000000    -0.397574   
O63      O      0.391510000000     0.213420000000     0.596000000000    -0.396444   
O64      O      0.352400000000     0.251360000000     0.586910000000    -0.399485   
O65      O      0.028510000000     0.467210000000     0.922850000000    -0.394196   
O66      O      0.988440000000     0.493130000000     0.978530000000    -0.393287   
O67      O      0.995400000000     0.486510000000     0.903880000000    -0.39414    
O68      O      0.021640000000     0.473810000000     0.997470000000    -0.394172   
O69      O      0.054370000000     0.513610000000     0.996070000000    -0.401406   
O70      O      0.029430000000     0.525510000000     0.901510000000    -0.400953   
O71      O      0.021630000000     0.532550000000     0.975630000000    -0.399012   
O72      O      0.062270000000     0.506410000000     0.921960000000    -0.398428   
O73      O      0.683230000000     0.871860000000     0.373340000000    -0.399667   
O74      O      0.713810000000     0.828930000000     0.341110000000    -0.39769    
O75      O      0.699610000000     0.840730000000     0.408580000000    -0.397344   
O76      O      0.697290000000     0.860530000000     0.305450000000    -0.398277   
O77      O      0.736660000000     0.893700000000     0.311060000000    -0.398477   
O78      O      0.738810000000     0.874220000000     0.414340000000    -0.397388   
O79      O      0.752910000000     0.862420000000     0.346980000000    -0.394762   
O80      O      0.722320000000     0.905550000000     0.378780000000    -0.397177   
O81      O      0.853910000000     0.627380000000     0.150940000000    -0.397413   
O82      O      0.823070000000     0.669480000000     0.186570000000    -0.397753   
O83      O      0.831340000000     0.654050000000     0.117470000000    -0.398975   
O84      O      0.845460000000     0.642930000000     0.220040000000    -0.398467   
O85      O      0.884650000000     0.676640000000     0.216110000000    -0.398417   
O86      O      0.868810000000     0.690110000000     0.115500000000    -0.398154   
O87      O      0.861750000000     0.704140000000     0.186140000000    -0.398831   
O88      O      0.891810000000     0.662710000000     0.145890000000    -0.399484   
O89      O      0.552380000000     0.010270000000     0.515390000000    -0.397872   
O90      O      0.509660000000     0.043900000000     0.531630000000    -0.398691   
O91      O      0.523920000000     0.025660000000     0.470080000000    -0.396741   
O92      O      0.538320000000     0.028640000000     0.576810000000    -0.392758   
O93      O      0.571810000000     0.067610000000     0.570090000000    -0.398078   
O94      O      0.560000000000     0.062690000000     0.462940000000    -0.398381   
O95      O      0.544070000000     0.082000000000     0.522720000000    -0.39747    
O96      O      0.587410000000     0.048420000000     0.510990000000    -0.39465    
O97      O      0.353440000000     0.135220000000     0.098090000000    -0.39637    
O98      O      0.385810000000     0.209050000000     0.066410000000    -0.394752   
O99      O      0.371080000000     0.183070000000     0.134080000000    -0.399211   
O100     O      0.368590000000     0.161710000000     0.030900000000    -0.398905   
O101     O      0.329830000000     0.157100000000     0.025000000000    -0.393612   
O102     O      0.332120000000     0.178250000000     0.128590000000    -0.397828   
O103     O      0.347140000000     0.204790000000     0.060900000000    -0.398638   
O104     O      0.314840000000     0.131100000000     0.091960000000    -0.396246   
O105     O      0.520290000000     0.484940000000     0.966670000000    -0.400514   
O106     O      0.566750000000     0.561280000000     0.975020000000    -0.398801   
O107     O      0.543850000000     0.519810000000     0.024720000000    -0.39856    
O108     O      0.543010000000     0.526230000000     0.916950000000    -0.400463   
O109     O      0.509040000000     0.531410000000     0.921050000000    -0.399787   
O110     O      0.510020000000     0.525250000000     0.028870000000    -0.400396   
O111     O      0.532710000000     0.566340000000     0.978740000000    -0.398937   
O112     O      0.486160000000     0.489790000000     0.971270000000    -0.39803    
O113     O      0.224800000000     0.871680000000     0.273300000000    -0.398804   
O114     O      0.188550000000     0.799640000000     0.312290000000    -0.398659   
O115     O      0.201010000000     0.821920000000     0.241970000000    -0.39757    
O116     O      0.212220000000     0.849450000000     0.343420000000    -0.397649   
O117     O      0.174400000000     0.847610000000     0.341590000000    -0.400016   
O118     O      0.164290000000     0.822280000000     0.239480000000    -0.400592   
O119     O      0.151250000000     0.798790000000     0.309050000000    -0.39847    
O120     O      0.187740000000     0.871410000000     0.271730000000    -0.39772    
O121     O      0.053010000000     0.528660000000     0.450850000000    -0.398305   
O122     O      0.016180000000     0.451570000000     0.456360000000    -0.395147   
O123     O      0.037360000000     0.488000000000     0.399840000000    -0.397971   
O124     O      0.031900000000     0.492280000000     0.507450000000    -0.398175   
O125     O      0.993520000000     0.488700000000     0.500990000000    -0.397415   
O126     O      0.001260000000     0.489180000000     0.393100000000    -0.397693   
O127     O      0.979130000000     0.450130000000     0.447340000000    -0.399008   
O128     O      0.015500000000     0.527310000000     0.446820000000    -0.395557   
O129     O      0.907730000000     0.218230000000     0.644520000000    -0.399789   
O130     O      0.874600000000     0.142500000000     0.624810000000    -0.39481    
O131     O      0.896150000000     0.187680000000     0.581570000000    -0.39981    
O132     O      0.886550000000     0.173330000000     0.687820000000    -0.400141   
O133     O      0.847320000000     0.168070000000     0.684350000000    -0.394831   
O134     O      0.859010000000     0.187190000000     0.579080000000    -0.397866   
O135     O      0.836920000000     0.140230000000     0.618970000000    -0.39877    
O136     O      0.869330000000     0.215060000000     0.644200000000    -0.398896   
O137     O      0.722890000000     0.844980000000     0.886690000000    -0.394317   
O138     O      0.755750000000     0.915200000000     0.841680000000    -0.398714   
O139     O      0.742860000000     0.895830000000     0.913210000000    -0.394226   
O140     O      0.735860000000     0.864570000000     0.814860000000    -0.398177   
O141     O      0.697150000000     0.860260000000     0.809170000000    -0.399216   
O142     O      0.704430000000     0.892180000000     0.906860000000    -0.398835   
O143     O      0.717340000000     0.911470000000     0.835000000000    -0.398089   
O144     O      0.684560000000     0.841580000000     0.881170000000    -0.398827   
S1       S      0.881850000000     0.102030000000     0.611310000000    -0.0117654  
S2       S      0.021460000000     0.409610000000     0.447360000000    -0.0123377  
S3       S      0.020510000000     0.574480000000     0.481680000000    -0.0177638  
S4       S      0.726140000000     0.817080000000     0.947560000000    -0.0138515  
S5       S      0.277410000000     0.079620000000     0.069710000000    -0.0126121  
S6       S      0.420510000000     0.242300000000     0.013800000000    -0.0168443  
S7       S      0.699010000000     0.801250000000     0.478120000000    -0.0242465  
S8       S      0.772780000000     0.944740000000     0.960960000000    -0.0198053  
S9       S      0.790600000000     0.848840000000     0.366030000000    -0.0141363  
S10      S      0.631910000000     0.046140000000     0.538880000000    -0.0148478  
S11      S      0.952400000000     0.491970000000     0.856960000000    -0.0205572  
S12      S      0.046900000000     0.445410000000     0.045700000000    -0.0211196  
S13      S      0.957930000000     0.483820000000     0.041260000000    -0.0119053  
S14      S      0.298110000000     0.122970000000     0.973620000000    -0.0101682  
S15      S      0.405030000000     0.228470000000     0.481390000000    -0.0131946  
S16      S      0.430200000000     0.209230000000     0.640140000000    -0.017646   
S17      S      0.027400000000     0.439770000000     0.857390000000    -0.0138376  
S18      S      0.225550000000     0.270040000000     0.851910000000    -0.0106245  
S19      S      0.523490000000     0.467610000000     0.581900000000    -0.0123152  
S20      S      0.573810000000     0.539520000000     0.101470000000    -0.0213261  
S21      S      0.816610000000     0.123930000000     0.736010000000    -0.0250314  
S22      S      0.947240000000     0.208910000000     0.236530000000    -0.0286167  
S23      S      0.135550000000     0.293230000000     0.441090000000    -0.0122701  
S24      S      0.191860000000     0.317480000000     0.966380000000    -0.0186794  
S25      S      0.960510000000     0.280780000000     0.075130000000    -0.0125245  
S26      S      0.251490000000     0.423360000000     0.397260000000    -0.0164812  
S27      S      0.549940000000     0.002560000000     0.632010000000    -0.0142384  
S28      S      0.471230000000     0.019190000000     0.113190000000    -0.0221375  
S29      S      0.808500000000     0.144630000000     0.225260000000    -0.0221356  
S30      S      0.264800000000     0.922690000000     0.682510000000    -0.018855   
S31      S      0.262020000000     0.853390000000     0.908000000000    -0.0202871  
S32      S      0.491340000000     0.044100000000     0.930790000000    -0.0143907  
S33      S      0.876710000000     0.669870000000     0.805800000000    -0.0219655  
S34      S      0.917230000000     0.751040000000     0.546130000000    -0.0207648  
S35      S      0.791400000000     0.613490000000     0.673440000000    -0.0148286  
S36      S      0.139370000000     0.798990000000     0.836990000000    -0.0168427  


