data_structure

_audit_creation_method RASPA-1.0
_audit_creation_date 2023-5-25
_audit_author_name 'Poobodin Mano'

_cell_length_a    38.0193
_cell_length_b    38.203
_cell_length_c    38.2261
_cell_angle_alpha 90
_cell_angle_beta  90
_cell_angle_gamma 90
_cell_volume      55521.5

_symmetry_cell_setting          triclinic
_symmetry_space_group_name_Hall 'P 1'
_symmetry_space_group_name_H-M  'P 1'
_symmetry_Int_Tables_number     1

_symmetry_equiv_pos_as_xyz 'x,y,z'

loop_
_atom_site_label
_atom_site_type_symbol
_atom_site_fract_x
_atom_site_fract_y
_atom_site_fract_z
_atom_site_charge
C1       C      0.991560000000     0.061280000000     0.504370000000     0.397621   
C2       C      0.008040000000     0.923620000000     0.521160000000     0.398495   
C3       C      0.931140000000     0.985590000000     0.524420000000     0.400028   
C4       C      0.068700000000     0.998030000000     0.501190000000     0.399375   
C5       C      0.986460000000     0.425940000000     0.499880000000     0.398911   
C6       C      0.990370000000     0.560430000000     0.537230000000     0.397652   
C7       C      0.992710000000     0.511760000000     0.451590000000     0.400134   
C8       C      0.983760000000     0.474670000000     0.585600000000     0.400718   
C9       C      0.571760000000     0.023390000000     0.480890000000     0.399984   
C10      C      0.432860000000     0.025080000000     0.462470000000     0.3985     
C11      C      0.512330000000     0.030340000000     0.403470000000     0.400963   
C12      C      0.492990000000     0.018110000000     0.540850000000     0.400759   
C13      C      0.507950000000     0.990700000000     0.041450000000     0.399266   
C14      C      0.515860000000     0.981040000000     0.902730000000     0.398119   
C15      C      0.506060000000     0.055440000000     0.966780000000     0.402062   
C16      C      0.517830000000     0.917020000000     0.976030000000     0.401599   
C17      C      0.992780000000     0.514200000000     0.087140000000     0.397922   
C18      C      0.996450000000     0.498390000000     0.948710000000     0.399251   
C19      C      0.063830000000     0.511200000000     0.020510000000     0.400959   
C20      C      0.924130000000     0.501390000000     0.016450000000     0.401191   
C21      C      0.478650000000     0.416310000000     0.991680000000     0.401058   
C22      C      0.512990000000     0.551220000000     0.987210000000     0.399329   
C23      C      0.429230000000     0.501360000000     0.997580000000     0.399475   
C24      C      0.563620000000     0.465850000000     0.981200000000     0.400403   
C25      C      0.836740000000     0.458970000000     0.012450000000    -0.0322905  
C26      C      0.653180000000     0.480330000000     0.953520000000    -0.0305662  
C27      C      0.616770000000     0.436800000000     0.004590000000    -0.0063506  
C28      C      0.617370000000     0.463970000000     0.944620000000    -0.00651382 
C29      C      0.734870000000     0.450800000000     0.966670000000    -0.0549463  
C30      C      0.752120000000     0.503660000000     0.014190000000    -0.0539552  
C31      C      0.707960000000     0.468930000000     0.983930000000     0.061054   
C32      C      0.652400000000     0.453660000000     0.011690000000    -0.0299806  
C33      C      0.779050000000     0.484060000000     0.998620000000     0.0595625  
C34      C      0.832380000000     0.517490000000     0.988110000000    -0.0593275  
C35      C      0.770160000000     0.458680000000     0.973340000000    -0.0557789  
C36      C      0.866370000000     0.529470000000     0.006540000000     0.0832331  
C37      C      0.870930000000     0.467640000000     0.031510000000    -0.0048773  
C38      C      0.716900000000     0.496720000000     0.006470000000    -0.0569659  
C39      C      0.857950000000     0.551550000000     0.039060000000    -0.184982   
C40      C      0.153390000000     0.551090000000     0.019840000000    -0.0325384  
C41      C      0.333420000000     0.501560000000     0.982410000000    -0.0303813  
C42      C      0.382970000000     0.528690000000     0.033890000000    -0.00745567 
C43      C      0.370900000000     0.510500000000     0.971120000000    -0.00629837 
C44      C      0.263190000000     0.543860000000     0.994430000000    -0.0544324  
C45      C      0.232880000000     0.502020000000     0.046110000000    -0.0540376  
C46      C      0.285030000000     0.524090000000     0.016430000000     0.0608663  
C47      C      0.344490000000     0.520180000000     0.042040000000    -0.0300857  
C48      C      0.211060000000     0.521930000000     0.024220000000     0.0598709  
C49      C      0.158440000000     0.488450000000     0.011700000000    -0.0593986  
C50      C      0.226620000000     0.542270000000     0.997620000000    -0.0558106  
C51      C      0.121280000000     0.481670000000     0.026000000000     0.0835088  
C52      C      0.115560000000     0.548000000000     0.033090000000    -0.00500186 
C53      C      0.269370000000     0.502370000000     0.041860000000    -0.0564675  
C54      C      0.122800000000     0.468360000000     0.063920000000    -0.184761   
C55      C      0.490910000000     0.823390000000     0.979540000000    -0.0324868  
C56      C      0.544490000000     0.641470000000     0.011380000000    -0.0300012  
C57      C      0.504180000000     0.606510000000     0.956390000000    -0.00708137 
C58      C      0.530260000000     0.604660000000     0.018530000000    -0.00618442 
C59      C      0.506240000000     0.718020000000     0.010910000000    -0.0543371  
C60      C      0.548740000000     0.750000000000     0.960620000000    -0.0542263  
C61      C      0.525470000000     0.697220000000     0.987550000000     0.0610179  
C62      C      0.519350000000     0.643300000000     0.953470000000    -0.0295847  
C63      C      0.527530000000     0.770720000000     0.982280000000     0.0600072  
C64      C      0.552410000000     0.827830000000     0.995550000000    -0.0593387  
C65      C      0.507730000000     0.754490000000     0.008880000000    -0.0559671  
C66      C      0.555830000000     0.864670000000     0.979540000000     0.0834522  
C67      C      0.490530000000     0.860040000000     0.963710000000    -0.00479475 
C68      C      0.548360000000     0.713570000000     0.963610000000    -0.0568059  
C69      C      0.574550000000     0.863030000000     0.943920000000    -0.185017   
C70      C      0.521110000000     0.148880000000     0.986040000000    -0.0328261  
C71      C      0.464660000000     0.329350000000     0.955790000000    -0.0301473  
C72      C      0.474460000000     0.360740000000     0.024610000000    -0.00629947 
C73      C      0.449710000000     0.365580000000     0.963580000000    -0.00662049 
C74      C      0.455930000000     0.246590000000     0.000780000000    -0.0547704  
C75      C      0.507790000000     0.226060000000     0.953240000000    -0.0543346  
C76      C      0.474790000000     0.272140000000     0.982400000000     0.0610812  
C77      C      0.489080000000     0.324720000000     0.014680000000    -0.0303488  
C78      C      0.487910000000     0.200480000000     0.970510000000     0.0599551  
C79      C      0.462890000000     0.142170000000     0.960800000000    -0.0588939  
C80      C      0.462810000000     0.211060000000     0.995510000000    -0.0561299  
C81      C      0.471890000000     0.106100000000     0.945490000000     0.0815582  
C82      C      0.533390000000     0.113760000000     0.971200000000    -0.00385647 
C83      C      0.501900000000     0.261570000000     0.959590000000    -0.0568541  
C84      C      0.478510000000     0.108480000000     0.905930000000    -0.184737   
C85      C      0.509550000000     0.034680000000     0.634260000000    -0.0326206  
C86      C      0.482860000000     0.972450000000     0.812990000000    -0.0297923  
C87      C      0.549420000000     0.987830000000     0.847700000000    -0.00706093 
C88      C      0.490870000000     0.956340000000     0.848590000000    -0.00733834 
C89      C      0.530480000000     0.970870000000     0.731720000000    -0.0548197  
C90      C      0.478300000000     0.018240000000     0.711570000000    -0.0544496  
C91      C      0.510290000000     0.987600000000     0.757410000000     0.06063    
C92      C      0.539070000000     0.003020000000     0.811980000000    -0.0302631  
C93      C      0.497270000000     0.000200000000     0.685830000000     0.0596084  
C94      C      0.489510000000     0.974720000000     0.627380000000    -0.0588305  
C95      C      0.524600000000     0.977530000000     0.696240000000    -0.0559939  
C96      C      0.473410000000     0.982400000000     0.591270000000     0.0812711  
C97      C      0.493450000000     0.045600000000     0.599250000000    -0.00419802 
C98      C      0.485120000000     0.012620000000     0.747030000000    -0.0568296  
C99      C      0.433220000000     0.985500000000     0.593600000000    -0.184622   
C100     C      0.495520000000     0.056100000000     0.312470000000    -0.0329497  
C101     C      0.538820000000     0.000490000000     0.132630000000    -0.0295953  
C102     C      0.472240000000     0.999260000000     0.094750000000    -0.00663225 
C103     C      0.536110000000     0.980020000000     0.098480000000    -0.00741353 
C104     C      0.484080000000     0.996300000000     0.210790000000    -0.054488   
C105     C      0.532190000000     0.046840000000     0.233200000000    -0.0545297  
C106     C      0.505580000000     0.013010000000     0.186140000000     0.0605365  
C107     C      0.477920000000     0.019350000000     0.129060000000    -0.030263   
C108     C      0.512590000000     0.028210000000     0.258010000000     0.0598784  
C109     C      0.524930000000     0.999460000000     0.313440000000    -0.0587918  
C110     C      0.486940000000     0.004270000000     0.246350000000    -0.0559863  
C111     C      0.539480000000     0.005770000000     0.350290000000     0.081166   
C112     C      0.509350000000     0.065260000000     0.349090000000    -0.00387687 
C113     C      0.528280000000     0.039920000000     0.197490000000    -0.0563791  
C114     C      0.578430000000     0.016330000000     0.349080000000    -0.184225   
C115     C      0.957390000000     0.484740000000     0.676830000000    -0.0328137  
C116     C      0.999240000000     0.454120000000     0.861940000000    -0.0300321  
C117     C      0.993030000000     0.524860000000     0.890040000000    -0.00647616 
C118     C      0.013830000000     0.462000000000     0.898370000000    -0.00732096 
C119     C      0.013670000000     0.499900000000     0.778960000000    -0.0543943  
C120     C      0.966480000000     0.449350000000     0.754770000000    -0.0544959  
C121     C      0.994750000000     0.479810000000     0.803180000000     0.0605318  
C122     C      0.978610000000     0.513650000000     0.854370000000    -0.0302105  
C123     C      0.986470000000     0.468490000000     0.730630000000     0.0597794  
C124     C      0.016150000000     0.459430000000     0.674630000000    -0.0587723  
C125     C      0.009130000000     0.494910000000     0.743050000000    -0.0559813  
C126     C      0.010480000000     0.445880000000     0.637220000000     0.0813267  
C127     C      0.948800000000     0.471400000000     0.640010000000    -0.00411764 
C128     C      0.969970000000     0.455340000000     0.790700000000    -0.0564477  
C129     C      0.002520000000     0.406480000000     0.637110000000    -0.184773   
C130     C      0.970610000000     0.512500000000     0.357730000000    -0.0326085  
C131     C      0.996350000000     0.557150000000     0.175490000000    -0.0301131  
C132     C      0.994330000000     0.486980000000     0.145270000000    -0.00611321 
C133     C      0.006280000000     0.552440000000     0.136990000000    -0.00739217 
C134     C      0.025870000000     0.507880000000     0.253280000000    -0.0546398  
C135     C      0.979630000000     0.553750000000     0.286610000000    -0.054374   
C136     C      0.003530000000     0.528880000000     0.232980000000     0.0604561  
C137     C      0.983650000000     0.495680000000     0.182810000000    -0.0303468  
C138     C      0.002050000000     0.532830000000     0.306900000000     0.0594096  
C139     C      0.032040000000     0.528200000000     0.363990000000    -0.0586248  
C140     C      0.024700000000     0.509150000000     0.289780000000    -0.0557812  
C141     C      0.027450000000     0.537260000000     0.403020000000     0.0809485  
C142     C      0.962490000000     0.522260000000     0.395600000000    -0.00416292 
C143     C      0.979680000000     0.551340000000     0.250140000000    -0.0564873  
C144     C      0.027010000000     0.577050000000     0.408570000000    -0.184608   
C145     C      0.163130000000     0.022440000000     0.511430000000    -0.0326975  
C146     C      0.343510000000     0.989100000000     0.453310000000    -0.0299067  
C147     C      0.376390000000     0.057120000000     0.464590000000    -0.00713848 
C148     C      0.379930000000     0.996500000000     0.438090000000    -0.00768865 
C149     C      0.261000000000     0.035180000000     0.445700000000    -0.054812   
C150     C      0.239930000000     0.987990000000     0.497430000000    -0.054532   
C151     C      0.286550000000     0.016470000000     0.464370000000     0.0606825  
C152     C      0.340250000000     0.047150000000     0.479290000000    -0.0301762  
C153     C      0.214330000000     0.005690000000     0.477860000000     0.0595854  
C154     C      0.154960000000     0.997160000000     0.453970000000    -0.0585883  
C155     C      0.225220000000     0.030410000000     0.452710000000    -0.0559785  
C156     C      0.118850000000     0.981780000000     0.463650000000     0.0806868  
C157     C      0.128100000000     0.007850000000     0.524690000000    -0.00398431 
C158     C      0.275700000000     0.993740000000     0.491310000000    -0.0569514  
C159     C      0.121380000000     0.942000000000     0.469110000000    -0.183789   
C160     C      0.660810000000     0.986110000000     0.493090000000    -0.0325039  
C161     C      0.843640000000     0.012670000000     0.551680000000    -0.0306218  
C162     C      0.874600000000     0.959300000000     0.506700000000    -0.00653253 
C163     C      0.878770000000     0.995450000000     0.561720000000    -0.00652011 
C164     C      0.759360000000     0.985190000000     0.544720000000    -0.0548738  
C165     C      0.743660000000     0.031870000000     0.490640000000    -0.0540829  
C166     C      0.786790000000     0.000230000000     0.525420000000     0.0609999  
C167     C      0.839910000000     0.977450000000     0.498450000000    -0.0298924  
C168     C      0.716240000000     0.014710000000     0.508090000000     0.05956    
C169     C      0.660880000000     0.046250000000     0.513600000000    -0.0590936  
C170     C      0.724320000000     0.992820000000     0.536670000000    -0.0559282  
C171     C      0.627280000000     0.055110000000     0.492740000000     0.0826889  
C172     C      0.627370000000     0.991640000000     0.471760000000    -0.00472005 
C173     C      0.778680000000     0.025270000000     0.499580000000    -0.0570415  
C174     C      0.636260000000     0.075550000000     0.459300000000    -0.18466    
C175     C      0.994250000000     0.828580000000     0.507560000000    -0.0328327  
C176     C      0.030090000000     0.646740000000     0.553460000000    -0.029851   
C177     C      0.960050000000     0.617410000000     0.543280000000    -0.00724796 
C178     C      0.022140000000     0.609400000000     0.565590000000    -0.00786801 
C179     C      0.985140000000     0.729230000000     0.569850000000    -0.0547198  
C180     C      0.031800000000     0.754020000000     0.519170000000    -0.0543661  
C181     C      0.003900000000     0.705210000000     0.549330000000     0.0604963  
C182     C      0.970560000000     0.654280000000     0.531390000000    -0.0301604  
C183     C      0.013610000000     0.778060000000     0.540170000000     0.0593389  
C184     C      0.018710000000     0.837160000000     0.565450000000    -0.0584943  
C185     C      0.989360000000     0.765280000000     0.564990000000    -0.0558788  
C186     C      0.031220000000     0.874530000000     0.556620000000     0.0804256  
C187     C      0.006580000000     0.864620000000     0.495270000000    -0.00402836 
C188     C      0.026570000000     0.718010000000     0.523120000000    -0.0568419  
C189     C      0.071190000000     0.875400000000     0.550880000000    -0.183987   
C190     C      0.949090000000     0.337580000000     0.485790000000    -0.0325894  
C191     C      0.001110000000     0.157230000000     0.519060000000    -0.0300584  
C192     C      0.967490000000     0.109960000000     0.469320000000    -0.00757696 
C193     C      0.992070000000     0.120020000000     0.530640000000    -0.00657527 
C194     C      0.957220000000     0.228170000000     0.511850000000    -0.0545775  
C195     C      0.998280000000     0.259290000000     0.459910000000    -0.0542769  
C196     C      0.976200000000     0.206810000000     0.488740000000     0.0604001  
C197     C      0.976520000000     0.148280000000     0.461440000000    -0.0301247  
C198     C      0.978940000000     0.280620000000     0.482760000000     0.0594073  
C199     C      0.011000000000     0.332400000000     0.500380000000    -0.059045   
C200     C      0.959070000000     0.264630000000     0.509480000000    -0.0560564  
C201     C      0.018490000000     0.370530000000     0.489660000000     0.0824596  
C202     C      0.953320000000     0.375970000000     0.475100000000    -0.00531639 
C203     C      0.997550000000     0.222820000000     0.463180000000    -0.0566797  
C204     C      0.035630000000     0.372280000000     0.453320000000    -0.1846     
Cu1      Cu     0.994690000000     0.987680000000     0.481240000000     0.840199   
Cu2      Cu     0.004980000000     0.997200000000     0.544320000000     0.836476   
Cu3      Cu     0.955980000000     0.494670000000     0.516670000000     0.838808   
Cu4      Cu     0.020680000000     0.491710000000     0.520520000000     0.836838   
Cu5      Cu     0.502330000000     0.992160000000     0.469030000000     0.844797   
Cu6      Cu     0.502200000000     0.056460000000     0.475140000000     0.83358    
Cu7      Cu     0.544210000000     0.989130000000     0.973860000000     0.83765    
Cu8      Cu     0.479660000000     0.983440000000     0.970240000000     0.843747   
Cu9      Cu     0.996180000000     0.474250000000     0.021650000000     0.841404   
Cu10     Cu     0.991850000000     0.538310000000     0.014200000000     0.838302   
Cu11     Cu     0.500610000000     0.483610000000     0.021460000000     0.838842   
Cu12     Cu     0.492290000000     0.483590000000     0.957400000000     0.845188   
H1       H      0.696800000000     0.512320000000     0.019040000000     0.0401373  
H2       H      0.822550000000     0.438460000000     0.027580000000     0.0337898  
H3       H      0.814770000000     0.540470000000     0.984230000000     0.0397413  
H4       H      0.621340000000     0.409610000000     0.995230000000     0.0349651  
H5       H      0.864750000000     0.472930000000     0.059440000000     0.0335503  
H6       H      0.668630000000     0.482800000000     0.928910000000     0.0334572  
H7       H      0.667380000000     0.436590000000     0.029990000000     0.034058   
H8       H      0.602670000000     0.482120000000     0.927190000000     0.0389102  
H9       H      0.880840000000     0.546590000000     0.987870000000     0.0184654  
H10      H      0.758520000000     0.524040000000     0.032830000000     0.0413789  
H11      H      0.888200000000     0.444180000000     0.030830000000     0.0397709  
H12      H      0.728440000000     0.430050000000     0.948460000000     0.0432782  
H13      H      0.843430000000     0.448180000000     0.986230000000     0.0368572  
H14      H      0.601660000000     0.435080000000     0.029420000000     0.0396681  
H15      H      0.649200000000     0.507030000000     0.964540000000     0.0384254  
H16      H      0.647760000000     0.479340000000     0.024620000000     0.0386206  
H17      H      0.790210000000     0.444060000000     0.959610000000     0.0397351  
H18      H      0.838860000000     0.506950000000     0.961700000000     0.04342    
H19      H      0.621900000000     0.439080000000     0.930220000000     0.0366833  
H20      H      0.842680000000     0.575180000000     0.031560000000     0.0612829  
H21      H      0.882710000000     0.560320000000     0.051750000000     0.0739577  
H22      H      0.842460000000     0.536250000000     0.058370000000     0.0719635  
H23      H      0.284970000000     0.485780000000     0.058690000000     0.0396413  
H24      H      0.165680000000     0.574540000000     0.032040000000     0.0337402  
H25      H      0.175040000000     0.464880000000     0.016430000000     0.0396729  
H26      H      0.385490000000     0.557460000000     0.030310000000     0.0366863  
H27      H      0.115660000000     0.550830000000     0.062040000000     0.0339787  
H28      H      0.315990000000     0.504560000000     0.959200000000     0.0329785  
H29      H      0.335380000000     0.537650000000     0.063500000000     0.0337453  
H30      H      0.379370000000     0.491040000000     0.951180000000     0.039344   
H31      H      0.109430000000     0.460520000000     0.009780000000     0.0185417  
H32      H      0.221380000000     0.485610000000     0.066190000000     0.0412173  
H33      H      0.100110000000     0.570270000000     0.022380000000     0.039638   
H34      H      0.274660000000     0.560080000000     0.974170000000     0.0429355  
H35      H      0.152620000000     0.554990000000     0.990980000000     0.036414   
H36      H      0.399360000000     0.521340000000     0.056830000000     0.040332   
H37      H      0.332020000000     0.473780000000     0.991180000000     0.0382417  
H38      H      0.343140000000     0.492580000000     0.051280000000     0.0365936  
H39      H      0.210890000000     0.557200000000     0.979420000000     0.0397291  
H40      H      0.157250000000     0.492440000000     0.982840000000     0.0437016  
H41      H      0.370890000000     0.536760000000     0.958560000000     0.0376997  
H42      H      0.138270000000     0.443720000000     0.065360000000     0.0612314  
H43      H      0.095870000000     0.462780000000     0.073670000000     0.0745911  
H44      H      0.135100000000     0.488100000000     0.081410000000     0.0724111  
H45      H      0.564740000000     0.698390000000     0.946160000000     0.0394569  
H46      H      0.471000000000     0.807140000000     0.965680000000     0.0340711  
H47      H      0.578450000000     0.814490000000     0.994740000000     0.0396117  
H48      H      0.475170000000     0.608510000000     0.959640000000     0.0381831  
H49      H      0.491670000000     0.857640000000     0.934740000000     0.0339043  
H50      H      0.546870000000     0.655430000000     0.036840000000     0.0328839  
H51      H      0.502570000000     0.658690000000     0.935210000000     0.0338454  
H52      H      0.550900000000     0.589140000000     0.032160000000     0.0373418  
H53      H      0.572640000000     0.880460000000     0.997440000000     0.0180453  
H54      H      0.564970000000     0.762170000000     0.940760000000     0.0413272  
H55      H      0.464970000000     0.872550000000     0.970280000000     0.039821   
H56      H      0.489320000000     0.705840000000     0.030190000000     0.0435342  
H57      H      0.483210000000     0.825360000000     0.007570000000     0.0366165  
H58      H      0.508990000000     0.592630000000     0.931260000000     0.0399048  
H59      H      0.571210000000     0.639880000000     0.999510000000     0.0361557  
H60      H      0.546260000000     0.641530000000     0.942100000000     0.0348989  
H61      H      0.492240000000     0.769690000000     0.027080000000     0.0399969  
H62      H      0.544590000000     0.829940000000     0.023560000000     0.0432304  
H63      H      0.507480000000     0.606730000000     0.036670000000     0.0394122  
H64      H      0.601170000000     0.851430000000     0.946910000000     0.0613853  
H65      H      0.577670000000     0.889760000000     0.932950000000     0.0752642  
H66      H      0.559300000000     0.847020000000     0.924990000000     0.0722524  
H67      H      0.518130000000     0.280520000000     0.946160000000     0.0402549  
H68      H      0.544420000000     0.166400000000     0.988130000000     0.0333477  
H69      H      0.442380000000     0.155040000000     0.944450000000     0.0403742  
H70      H      0.448800000000     0.357100000000     0.038100000000     0.0368809  
H71      H      0.548590000000     0.118600000000     0.946820000000     0.0349393  
H72      H      0.447430000000     0.316230000000     0.936240000000     0.033846   
H73      H      0.489950000000     0.308260000000     0.038700000000     0.0332894  
H74      H      0.450450000000     0.381610000000     0.939320000000     0.0400628  
H75      H      0.448340000000     0.089200000000     0.949200000000     0.0207231  
H76      H      0.527980000000     0.218360000000     0.934790000000     0.0420578  
H77      H      0.551450000000     0.101380000000     0.990450000000     0.0383297  
H78      H      0.435780000000     0.254300000000     0.019270000000     0.0431256  
H79      H      0.510100000000     0.145100000000     0.012790000000     0.0380464  
H80      H      0.492950000000     0.373420000000     0.043250000000     0.0390889  
H81      H      0.491260000000     0.332780000000     0.944150000000     0.0380773  
H82      H      0.516420000000     0.327520000000     0.004560000000     0.0383845  
H83      H      0.448010000000     0.192140000000     0.010500000000     0.0397536  
H84      H      0.451600000000     0.138020000000     0.987350000000     0.0421159  
H85      H      0.421650000000     0.362550000000     0.971220000000     0.035387   
H86      H      0.454710000000     0.118490000000     0.892340000000     0.0616016  
H87      H      0.484580000000     0.082100000000     0.895310000000     0.0706413  
H88      H      0.500950000000     0.126170000000     0.900130000000     0.0719251  
H89      H      0.470090000000     0.027160000000     0.766140000000     0.039312   
H90      H      0.509550000000     0.057920000000     0.651840000000     0.0330874  
H91      H      0.474900000000     0.952920000000     0.640160000000     0.0403135  
H92      H      0.566540000000     0.964620000000     0.843460000000     0.0363375  
H93      H      0.467560000000     0.058190000000     0.604190000000     0.0346479  
H94      H      0.465480000000     0.954240000000     0.798240000000     0.0335266  
H95      H      0.563500000000     0.007440000000     0.796560000000     0.0329467  
H96      H      0.465940000000     0.954010000000     0.863610000000     0.039757   
H97      H      0.479210000000     0.959450000000     0.574300000000     0.0206023  
H98      H      0.457990000000     0.036640000000     0.704030000000     0.0416746  
H99      H      0.510910000000     0.065530000000     0.587080000000     0.0385825  
H100     H      0.550640000000     0.952320000000     0.739280000000     0.0429813  
H101     H      0.537330000000     0.026250000000     0.630370000000     0.0379743  
H102     H      0.564870000000     0.007770000000     0.862310000000     0.0375168  
H103     H      0.468440000000     0.997440000000     0.817300000000     0.0364341  
H104     H      0.525740000000     0.028740000000     0.815640000000     0.0363994  
H105     H      0.540900000000     0.964310000000     0.677220000000     0.0396364  
H106     H      0.517080000000     0.965840000000     0.623240000000     0.0421888  
H107     H      0.501090000000     0.929380000000     0.844420000000     0.0348034  
H108     H      0.421670000000     0.960640000000     0.603390000000     0.0613913  
H109     H      0.422110000000     0.990800000000     0.567240000000     0.0701917  
H110     H      0.425410000000     0.007090000000     0.611440000000     0.0717248  
H111     H      0.544190000000     0.054530000000     0.179150000000     0.0396399  
H112     H      0.492310000000     0.080850000000     0.297450000000     0.0334721  
H113     H      0.543010000000     0.981800000000     0.298790000000     0.0407245  
H114     H      0.459130000000     0.973940000000     0.100750000000     0.0379673  
H115     H      0.533050000000     0.082080000000     0.346370000000     0.0340872  
H116     H      0.558800000000     0.987590000000     0.149580000000     0.0334314  
H117     H      0.452370000000     0.020530000000     0.143230000000     0.0330548  
H118     H      0.561550000000     0.982200000000     0.084310000000     0.0403224  
H119     H      0.538160000000     0.980360000000     0.364450000000     0.0207573  
H120     H      0.551310000000     0.066070000000     0.241670000000     0.0419521  
H121     H      0.488930000000     0.080630000000     0.363170000000     0.0372013  
H122     H      0.465680000000     0.976330000000     0.202450000000     0.0430462  
H123     H      0.469260000000     0.043350000000     0.314680000000     0.0380825  
H124     H      0.454280000000     0.014700000000     0.077730000000     0.0385422  
H125     H      0.547980000000     0.027480000000     0.126470000000     0.0366136  
H126     H      0.486450000000     0.046660000000     0.123360000000     0.0376792  
H127     H      0.470240000000     0.990540000000     0.264680000000     0.0398904  
H128     H      0.499250000000     0.985750000000     0.316170000000     0.043142   
H129     H      0.532160000000     0.951900000000     0.104860000000     0.0362074  
H130     H      0.594350000000     0.995130000000     0.337020000000     0.0609083  
H131     H      0.588350000000     0.020740000000     0.376070000000     0.0675586  
H132     H      0.582220000000     0.040710000000     0.333710000000     0.0710938  
H133     H      0.953800000000     0.440300000000     0.808440000000     0.0396529  
H134     H      0.932460000000     0.485880000000     0.692060000000     0.0335686  
H135     H      0.035130000000     0.442160000000     0.688580000000     0.0405592  
H136     H      0.018590000000     0.538460000000     0.886080000000     0.0382083  
H137     H      0.933930000000     0.446450000000     0.642230000000     0.0343394  
H138     H      0.015180000000     0.432770000000     0.850060000000     0.0335446  
H139     H      0.978780000000     0.536920000000     0.836830000000     0.0330294  
H140     H      0.008970000000     0.438940000000     0.915430000000     0.0401722  
H141     H      0.035730000000     0.449430000000     0.622940000000     0.0207464  
H142     H      0.948140000000     0.429680000000     0.745640000000     0.0420355  
H143     H      0.931420000000     0.490840000000     0.626950000000     0.0386472  
H144     H      0.032020000000     0.519590000000     0.788040000000     0.0430943  
H145     H      0.968390000000     0.511730000000     0.675240000000     0.0385177  
H146     H      0.974430000000     0.543980000000     0.901860000000     0.0386063  
H147     H      0.971660000000     0.444760000000     0.864820000000     0.0361643  
H148     H      0.950890000000     0.504580000000     0.857090000000     0.0375438  
H149     H      0.023800000000     0.511340000000     0.725250000000     0.039905   
H150     H      0.028200000000     0.485910000000     0.672660000000     0.0428414  
H151     H      0.042810000000     0.465330000000     0.896310000000     0.0365155  
H152     H      0.025030000000     0.391690000000     0.648290000000     0.0612803  
H153     H      0.998340000000     0.397340000000     0.609840000000     0.0690118  
H154     H      0.978590000000     0.400500000000     0.652660000000     0.071664   
H155     H      0.961180000000     0.567230000000     0.235700000000     0.0392054  
H156     H      0.946210000000     0.516460000000     0.342110000000     0.0329055  
H157     H      0.053950000000     0.543920000000     0.352700000000     0.0398645  
H158     H      0.021130000000     0.475290000000     0.145510000000     0.0374031  
H159     H      0.951010000000     0.549020000000     0.396210000000     0.0348857  
H160     H      0.011240000000     0.579870000000     0.186130000000     0.0331849  
H161     H      0.988310000000     0.472000000000     0.199160000000     0.0324854  
H162     H      0.995060000000     0.574620000000     0.121810000000     0.0390714  
H163     H      0.050910000000     0.526940000000     0.417040000000     0.0197533  
H164     H      0.961400000000     0.571480000000     0.299280000000     0.0415723  
H165     H      0.942210000000     0.503810000000     0.405610000000     0.0385531  
H166     H      0.043830000000     0.489880000000     0.240620000000     0.0423772  
H167     H      0.977950000000     0.484310000000     0.356020000000     0.0376041  
H168     H      0.975960000000     0.466830000000     0.134860000000     0.0372795  
H169     H      0.967730000000     0.563200000000     0.176970000000     0.0348907  
H170     H      0.955040000000     0.501930000000     0.184000000000     0.0368796  
H171     H      0.041630000000     0.491640000000     0.304250000000     0.0389885  
H172     H      0.039580000000     0.500100000000     0.362270000000     0.0410043  
H173     H      0.035380000000     0.554140000000     0.134560000000     0.0361849  
H174     H      0.052100000000     0.588800000000     0.399400000000     0.0613853  
H175     H      0.024020000000     0.583080000000     0.436840000000     0.0707577  
H176     H      0.004870000000     0.589330000000     0.394100000000     0.0717511  
H177     H      0.294660000000     0.979990000000     0.507300000000     0.0391961  
H178     H      0.181290000000     0.024760000000     0.534170000000     0.0329929  
H179     H      0.167400000000     0.980960000000     0.433150000000     0.0401297  
H180     H      0.372580000000     0.072130000000     0.439960000000     0.0371999  
H181     H      0.133350000000     0.984070000000     0.540630000000     0.0345842  
H182     H      0.329760000000     0.970150000000     0.435940000000     0.033548   
H183     H      0.324110000000     0.071380000000     0.481330000000     0.0330645  
H184     H      0.395610000000     0.971950000000     0.438720000000     0.0400039  
H185     H      0.101090000000     0.986210000000     0.440920000000     0.0204197  
H186     H      0.232040000000     0.969700000000     0.517600000000     0.04148    
H187     H      0.115820000000     0.027650000000     0.542200000000     0.0375587  
H188     H      0.268920000000     0.053550000000     0.425600000000     0.0431335  
H189     H      0.159180000000     0.049110000000     0.500290000000     0.0374141  
H190     H      0.389810000000     0.074510000000     0.483730000000     0.0387502  
H191     H      0.347000000000     0.976810000000     0.479470000000     0.0360391  
H192     H      0.343290000000     0.035950000000     0.506030000000     0.0366366  
H193     H      0.206300000000     0.045610000000     0.438050000000     0.0395788  
H194     H      0.150720000000     0.023830000000     0.443000000000     0.0416143  
H195     H      0.376770000000     0.004110000000     0.410190000000     0.0359219  
H196     H      0.131180000000     0.929040000000     0.444990000000     0.0611404  
H197     H      0.095000000000     0.931050000000     0.475190000000     0.0701123  
H198     H      0.139420000000     0.935700000000     0.491100000000     0.0702094  
H199     H      0.799270000000     0.038440000000     0.485160000000     0.0401545  
H200     H      0.676830000000     0.965450000000     0.480130000000     0.0336543  
H201     H      0.677100000000     0.070330000000     0.516710000000     0.0397801  
H202     H      0.868690000000     0.934140000000     0.520100000000     0.0351815  
H203     H      0.634790000000     0.995430000000     0.443880000000     0.0314868  
H204     H      0.829560000000     0.020020000000     0.576120000000     0.033521   
H205     H      0.822990000000     0.958940000000     0.483520000000     0.0339333  
H206     H      0.895560000000     0.015110000000     0.575190000000     0.0383791  
H207     H      0.610840000000     0.072480000000     0.509470000000     0.0181404  
H208     H      0.737860000000     0.049610000000     0.469300000000     0.0413927  
H209     H      0.611360000000     0.967340000000     0.473160000000     0.0392828  
H210     H      0.765190000000     0.966590000000     0.565310000000     0.0432829  
H211     H      0.653270000000     0.976690000000     0.519600000000     0.036856   
H212     H      0.888340000000     0.952910000000     0.481840000000     0.0396512  
H213     H      0.848750000000     0.036980000000     0.536410000000     0.0381149  
H214     H      0.845540000000     0.000530000000     0.481600000000     0.0383896  
H215     H      0.703760000000     0.980320000000     0.551700000000     0.0397166  
H216     H      0.653560000000     0.037150000000     0.540310000000     0.0430176  
H217     H      0.873430000000     0.973700000000     0.580310000000     0.0370579  
H218     H      0.649820000000     0.100420000000     0.466000000000     0.0611678  
H219     H      0.611830000000     0.082100000000     0.444800000000     0.0731391  
H220     H      0.653580000000     0.059940000000     0.441850000000     0.0705926  
H221     H      0.040400000000     0.700440000000     0.505750000000     0.0391505  
H222     H      0.993370000000     0.810970000000     0.484370000000     0.0329965  
H223     H      0.035990000000     0.825600000000     0.585940000000     0.0401699  
H224     H      0.946700000000     0.619350000000     0.569090000000     0.0370605  
H225     H      0.031370000000     0.861510000000     0.480140000000     0.0336039  
H226     H      0.050580000000     0.658080000000     0.570890000000     0.0334465  
H227     H      0.946730000000     0.671180000000     0.532260000000     0.0330962  
H228     H      0.046120000000     0.593130000000     0.562110000000     0.0398448  
H229     H      0.025530000000     0.891210000000     0.579810000000     0.0205094  
H230     H      0.049730000000     0.763350000000     0.499220000000     0.041411   
H231     H      0.986370000000     0.875400000000     0.477200000000     0.0380451  
H232     H      0.966820000000     0.719890000000     0.589440000000     0.0431243  
H233     H      0.967140000000     0.830440000000     0.518490000000     0.0379338  
H234     H      0.940860000000     0.606590000000     0.524170000000     0.0390081  
H235     H      0.040810000000     0.645360000000     0.526410000000     0.0358333  
H236     H      0.980160000000     0.653430000000     0.503860000000     0.0367898  
H237     H      0.973750000000     0.782880000000     0.580760000000     0.0397061  
H238     H      0.991710000000     0.839100000000     0.576550000000     0.0418414  
H239     H      0.016120000000     0.610090000000     0.594040000000     0.0358756  
H240     H      0.085130000000     0.866470000000     0.574800000000     0.0611691  
H241     H      0.079840000000     0.902560000000     0.545050000000     0.0688325  
H242     H      0.078870000000     0.858290000000     0.528650000000     0.0701727  
H243     H      0.013630000000     0.207440000000     0.445640000000     0.0394889  
H244     H      0.927210000000     0.325940000000     0.470340000000     0.0337114  
H245     H      0.035300000000     0.316530000000     0.496680000000     0.0395075  
H246     H      0.938720000000     0.107980000000     0.474200000000     0.0366199  
H247     H      0.954890000000     0.377350000000     0.446090000000     0.0333581  
H248     H      0.001120000000     0.174250000000     0.542720000000     0.0327586  
H249     H      0.957440000000     0.158460000000     0.441850000000     0.0335038  
H250     H      0.013680000000     0.110290000000     0.547690000000     0.0389506  
H251     H      0.037830000000     0.381120000000     0.508790000000     0.0183651  
H252     H      0.014520000000     0.271110000000     0.439850000000     0.0413833  
H253     H      0.929300000000     0.390500000000     0.483090000000     0.0394423  
H254     H      0.941460000000     0.216400000000     0.532310000000     0.0428346  
H255     H      0.941820000000     0.336830000000     0.513980000000     0.0363116  
H256     H      0.973330000000     0.093990000000     0.445700000000     0.0397883  
H257     H      0.028010000000     0.157920000000     0.507500000000     0.037366   
H258     H      0.003320000000     0.149200000000     0.449750000000     0.0357274  
H259     H      0.944880000000     0.280020000000     0.528540000000     0.0393289  
H260     H      0.004250000000     0.331420000000     0.528740000000     0.0422217  
H261     H      0.967660000000     0.120790000000     0.546660000000     0.0381093  
H262     H      0.060980000000     0.357820000000     0.453330000000     0.0609998  
H263     H      0.041100000000     0.399960000000     0.446260000000     0.0728084  
H264     H      0.018180000000     0.360790000000     0.433050000000     0.0715953  
N1       N      0.888200000000     0.498940000000     0.016540000000    -0.179276   
N2       N      0.814910000000     0.490640000000     0.009390000000    -0.1102     
N3       N      0.671990000000     0.457900000000     0.978630000000    -0.114025   
N4       N      0.598000000000     0.456350000000     0.977100000000    -0.168427   
N5       N      0.099570000000     0.513820000000     0.024150000000    -0.179274   
N6       N      0.173370000000     0.519380000000     0.029020000000    -0.109994   
N7       N      0.322650000000     0.525390000000     0.010600000000    -0.113394   
N8       N      0.394870000000     0.511240000000     0.001490000000    -0.167772   
N9       N      0.520840000000     0.881320000000     0.975470000000    -0.179392   
N10      N      0.526130000000     0.807940000000     0.975730000000    -0.110168   
N11      N      0.520000000000     0.659800000000     0.988170000000    -0.113158   
N12      N      0.518610000000     0.586570000000     0.986330000000    -0.167649   
N13      N      0.503160000000     0.090910000000     0.962960000000    -0.179567   
N14      N      0.494690000000     0.164130000000     0.962550000000    -0.110333   
N15      N      0.466210000000     0.308510000000     0.988240000000    -0.113988   
N16      N      0.468900000000     0.381920000000     0.992870000000    -0.168461   
N17      N      0.488190000000     0.014970000000     0.576210000000    -0.179089   
N18      N      0.488520000000     0.006310000000     0.649500000000    -0.110353   
N19      N      0.515860000000     0.978300000000     0.793650000000    -0.11404    
N20      N      0.517880000000     0.976840000000     0.867280000000    -0.168666   
N21      N      0.518920000000     0.033220000000     0.368440000000    -0.179569   
N22      N      0.520640000000     0.032910000000     0.294680000000    -0.110398   
N23      N      0.504380000000     0.001060000000     0.150220000000    -0.113598   
N24      N      0.506040000000     0.992030000000     0.077150000000    -0.167708   
N25      N      0.981420000000     0.465120000000     0.620020000000    -0.179228   
N26      N      0.982490000000     0.460880000000     0.693760000000    -0.110424   
N27      N      0.000930000000     0.485790000000     0.840070000000    -0.113409   
N28      N      0.998730000000     0.494430000000     0.913200000000    -0.167652   
N29      N      0.994680000000     0.521800000000     0.417250000000    -0.179274   
N30      N      0.999150000000     0.534840000000     0.344650000000    -0.110288   
N31      N      0.004870000000     0.525220000000     0.195280000000    -0.113307   
N32      N      0.994740000000     0.518340000000     0.122650000000    -0.168069   
N33      N      0.104280000000     0.998350000000     0.495610000000    -0.179043   
N34      N      0.177690000000     0.998560000000     0.485120000000    -0.110382   
N35      N      0.323200000000     0.021870000000     0.455780000000    -0.113939   
N36      N      0.397320000000     0.025520000000     0.456850000000    -0.168087   
N37      N      0.607670000000     0.022850000000     0.483650000000    -0.179485   
N38      N      0.680790000000     0.019040000000     0.495090000000    -0.110382   
N39      N      0.822270000000     0.987930000000     0.531180000000    -0.113982   
N40      N      0.896000000000     0.981140000000     0.530300000000    -0.168302   
N41      N      0.013200000000     0.888340000000     0.525120000000    -0.179036   
N42      N      0.018900000000     0.815070000000     0.533830000000    -0.110335   
N43      N      0.997870000000     0.668170000000     0.554800000000    -0.113912   
N44      N      0.991380000000     0.594920000000     0.546950000000    -0.167884   
N45      N      0.985700000000     0.391470000000     0.489960000000    -0.179197   
N46      N      0.982000000000     0.318260000000     0.479260000000    -0.110311   
N47      N      0.974750000000     0.169230000000     0.493730000000    -0.113419   
N48      N      0.986240000000     0.096540000000     0.500460000000    -0.167186   
O1       O      0.988340000000     0.040670000000     0.477980000000    -0.396959   
O2       O      0.001300000000     0.935980000000     0.490690000000    -0.401573   
O3       O      0.943180000000     0.982200000000     0.493280000000    -0.400813   
O4       O      0.047640000000     0.992700000000     0.475470000000    -0.400622   
O5       O      0.056770000000     0.001470000000     0.532410000000    -0.400386   
O6       O      0.951830000000     0.992610000000     0.550050000000    -0.397106   
O7       O      0.010710000000     0.944170000000     0.547660000000    -0.398428   
O8       O      0.998960000000     0.048980000000     0.534720000000    -0.399157   
O9       O      0.957600000000     0.443020000000     0.503600000000    -0.398368   
O10      O      0.960830000000     0.546150000000     0.529380000000    -0.398202   
O11      O      0.962460000000     0.506930000000     0.465620000000    -0.401597   
O12      O      0.955730000000     0.482170000000     0.568410000000    -0.399358   
O13      O      0.013980000000     0.475970000000     0.570720000000    -0.400587   
O14      O      0.020930000000     0.507730000000     0.469630000000    -0.399869   
O15      O      0.018910000000     0.542520000000     0.536250000000    -0.399016   
O16      O      0.016160000000     0.441070000000     0.505100000000    -0.401123   
O17      O      0.554880000000     0.994520000000     0.477410000000    -0.401664   
O18      O      0.449820000000     0.996130000000     0.460170000000    -0.400525   
O19      O      0.511830000000     0.999940000000     0.417630000000    -0.403173   
O20      O      0.493220000000     0.990660000000     0.521460000000    -0.400921   
O21      O      0.496970000000     0.048580000000     0.527300000000    -0.399895   
O22      O      0.507510000000     0.057980000000     0.422020000000    -0.398374   
O23      O      0.449080000000     0.053700000000     0.469530000000    -0.398097   
O24      O      0.555320000000     0.052770000000     0.480750000000    -0.400075   
O25      O      0.538150000000     0.990180000000     0.026490000000    -0.399596   
O26      O      0.543850000000     0.987270000000     0.920530000000    -0.398748   
O27      O      0.536410000000     0.041650000000     0.971890000000    -0.400498   
O28      O      0.545650000000     0.936060000000     0.975930000000    -0.401976   
O29      O      0.487230000000     0.931180000000     0.975140000000    -0.401438   
O30      O      0.478530000000     0.036170000000     0.964470000000    -0.402406   
O31      O      0.486020000000     0.977890000000     0.918010000000    -0.401741   
O32      O      0.479610000000     0.989310000000     0.023210000000    -0.398472   
O33      O      0.994270000000     0.483340000000     0.073930000000    -0.400759   
O34      O      0.998050000000     0.471390000000     0.968630000000    -0.399446   
O35      O      0.049080000000     0.481030000000     0.022400000000    -0.402401   
O36      O      0.942830000000     0.473720000000     0.020540000000    -0.400654   
O37      O      0.938860000000     0.531420000000     0.012880000000    -0.401137   
O38      O      0.045220000000     0.538950000000     0.016540000000    -0.399627   
O39      O      0.993490000000     0.529160000000     0.961880000000    -0.399017   
O40      O      0.991020000000     0.541230000000     0.067260000000    -0.399828   
O41      O      0.485920000000     0.432550000000     0.020170000000    -0.399425   
O42      O      0.514900000000     0.534670000000     0.016390000000    -0.39838    
O43      O      0.449300000000     0.498740000000     0.024490000000    -0.39784    
O44      O      0.550730000000     0.468360000000     0.012100000000    -0.400233   
O45      O      0.544500000000     0.472020000000     0.954200000000    -0.398797   
O46      O      0.441280000000     0.495310000000     0.966830000000    -0.400889   
O47      O      0.504040000000     0.535210000000     0.959080000000    -0.401521   
O48      O      0.480160000000     0.432140000000     0.962120000000    -0.400987   


