data_structure

_audit_creation_method RASPA-1.0
_audit_creation_date 2023-5-25
_audit_author_name 'Poobodin Mano'

_cell_length_a    37.2828
_cell_length_b    37.6607
_cell_length_c    37.5452
_cell_angle_alpha 90
_cell_angle_beta  90
_cell_angle_gamma 90
_cell_volume      52717.1

_symmetry_cell_setting          triclinic
_symmetry_space_group_name_Hall 'P 1'
_symmetry_space_group_name_H-M  'P 1'
_symmetry_Int_Tables_number     1

_symmetry_equiv_pos_as_xyz 'x,y,z'

loop_
_atom_site_label
_atom_site_type_symbol
_atom_site_fract_x
_atom_site_fract_y
_atom_site_fract_z
_atom_site_charge
C1       C      0.083610000000     0.976330000000     0.010390000000     0.40183    
C2       C      0.950960000000     0.027860000000     0.003400000000     0.399422   
C3       C      0.992090000000     0.936790000000     0.998710000000     0.400231   
C4       C      0.042910000000     0.067990000000     0.014850000000     0.401765   
C5       C      0.046280000000     0.052020000000     0.522890000000     0.300208   
C6       C      0.938950000000     0.960220000000     0.519550000000     0.299165   
C7       C      0.946430000000     0.059370000000     0.519570000000     0.29741    
C8       C      0.038910000000     0.952880000000     0.522720000000     0.3082     
C9       C      0.997210000000     0.515370000000     0.067590000000     0.399708   
C10      C      0.023150000000     0.488050000000     0.930970000000     0.398643   
C11      C      0.020000000000     0.433220000000     0.013700000000     0.398641   
C12      C      0.000920000000     0.570120000000     0.984100000000     0.400657   
C13      C      0.986850000000     0.508240000000     0.434570000000     0.48172    
C14      C      0.026800000000     0.496150000000     0.562990000000     0.480092   
C15      C      0.944410000000     0.498140000000     0.518160000000     0.364123   
C16      C      0.073390000000     0.506760000000     0.478750000000     0.362728   
C17      C      0.532780000000     0.949910000000     0.994910000000     0.4722     
C18      C      0.495690000000     0.078110000000     0.012680000000     0.478786   
C19      C      0.449250000000     0.992340000000     0.007430000000     0.478508   
C20      C      0.579890000000     0.028730000000     0.001120000000     0.481541   
C21      C      0.502580000000     0.916890000000     0.466090000000     0.470525   
C22      C      0.498450000000     0.051530000000     0.476340000000     0.474583   
C23      C      0.491250000000     0.987750000000     0.404320000000     0.364009   
C24      C      0.506430000000     0.979010000000     0.537630000000     0.368676   
C25      C      0.493450000000     0.527520000000     0.094540000000     0.399697   
C26      C      0.520600000000     0.500050000000     0.958080000000     0.402094   
C27      C      0.499190000000     0.444860000000     0.038470000000     0.399618   
C28      C      0.514850000000     0.583260000000     0.014770000000     0.399496   
C29      C      0.506900000000     0.416160000000     0.535080000000     0.474977   
C30      C      0.509250000000     0.550120000000     0.517960000000     0.47437    
C31      C      0.493390000000     0.475210000000     0.460540000000     0.472193   
C32      C      0.521640000000     0.492370000000     0.591540000000     0.470956   
C33      C      0.569520000000     0.494450000000     0.872270000000    -0.0315849  
C34      C      0.506070000000     0.496710000000     0.688580000000    -0.0312547  
C35      C      0.566480000000     0.500430000000     0.639440000000    -0.00311371 
C36      C      0.500170000000     0.510590000000     0.650880000000    -0.00296931 
C37      C      0.544570000000     0.463750000000     0.752130000000    -0.0567405  
C38      C      0.550090000000     0.522060000000     0.797970000000    -0.0564516  
C39      C      0.547180000000     0.498260000000     0.737900000000     0.0609583  
C40      C      0.569620000000     0.487310000000     0.677980000000    -0.031519   
C41      C      0.546020000000     0.487690000000     0.812210000000     0.0608013  
C42      C      0.505420000000     0.497030000000     0.861110000000    -0.0570434  
C43      C      0.544010000000     0.458640000000     0.788990000000    -0.0538668  
C44      C      0.496420000000     0.484600000000     0.898900000000     0.096145   
C45      C      0.563540000000     0.482590000000     0.910900000000    -0.0021225  
C46      C      0.550670000000     0.527170000000     0.761120000000    -0.0544576  
C47      C      0.512870000000     0.465490000000     0.365230000000    -0.0327144  
C48      C      0.458260000000     0.505530000000     0.180820000000    -0.0308906  
C49      C      0.512390000000     0.553050000000     0.152240000000    -0.00575766 
C50      C      0.451740000000     0.524780000000     0.145480000000    -0.00560488 
C51      C      0.448830000000     0.511890000000     0.260450000000    -0.0537565  
C52      C      0.512920000000     0.494620000000     0.294540000000    -0.0540924  
C53      C      0.481040000000     0.514440000000     0.241090000000     0.0593738  
C54      C      0.515810000000     0.534880000000     0.188540000000    -0.0307669  
C55      C      0.480350000000     0.490970000000     0.313490000000     0.0591124  
C56      C      0.461940000000     0.504560000000     0.374370000000    -0.0588719  
C57      C      0.448340000000     0.498810000000     0.295260000000    -0.0525874  
C58      C      0.452700000000     0.486960000000     0.410090000000     0.10093    
C59      C      0.507630000000     0.448550000000     0.401980000000     0.00230575 
C60      C      0.513180000000     0.505170000000     0.258870000000    -0.0541653  
C61      C      0.475450000000     0.823620000000     0.480470000000    -0.0326535  
C62      C      0.541550000000     0.639830000000     0.490110000000    -0.0314631  
C63      C      0.480100000000     0.608210000000     0.526310000000    -0.00200223 
C64      C      0.545930000000     0.603770000000     0.508410000000    -0.00291611 
C65      C      0.505560000000     0.706510000000     0.461310000000    -0.0566628  
C66      C      0.516870000000     0.760130000000     0.511660000000    -0.0564733  
C67      C      0.513190000000     0.697410000000     0.496900000000     0.0608012  
C68      C      0.478960000000     0.643800000000     0.506810000000    -0.0316433  
C69      C      0.509470000000     0.769240000000     0.476030000000     0.0607284  
C70      C      0.539770000000     0.826050000000     0.470640000000    -0.0577608  
C71      C      0.503870000000     0.742160000000     0.451060000000    -0.0539531  
C72      C      0.537200000000     0.862460000000     0.452320000000     0.0985983  
C73      C      0.469910000000     0.859860000000     0.462900000000     0.00168403 
C74      C      0.518800000000     0.724490000000     0.521860000000    -0.0544333  
C75      C      0.530210000000     0.144140000000     0.490820000000    -0.032207   
C76      C      0.469750000000     0.325820000000     0.531940000000    -0.0319799  
C77      C      0.539630000000     0.359280000000     0.540920000000    -0.00243981 
C78      C      0.472660000000     0.361860000000     0.550660000000    -0.00258826 
C79      C      0.493490000000     0.261460000000     0.488390000000    -0.0566621  
C80      C      0.503090000000     0.205930000000     0.536980000000    -0.056712   
C81      C      0.499890000000     0.269210000000     0.524550000000     0.0605953  
C82      C      0.534290000000     0.323560000000     0.522330000000    -0.0316525  
C83      C      0.496710000000     0.198210000000     0.500830000000     0.060812   
C84      C      0.466760000000     0.141090000000     0.504000000000    -0.0579129  
C85      C      0.491870000000     0.226240000000     0.476780000000    -0.0539552  
C86      C      0.462160000000     0.105950000000     0.483660000000     0.0999203  
C87      C      0.529300000000     0.109170000000     0.470110000000     0.00134009 
C88      C      0.504600000000     0.241170000000     0.548630000000    -0.0545786  
C89      C      0.522950000000     0.859370000000     0.963830000000    -0.0328131  
C90      C      0.557920000000     0.672900000000     0.009960000000    -0.02952    
C91      C      0.487450000000     0.640620000000     0.999490000000    -0.00601177 
C92      C      0.550490000000     0.636660000000     0.026530000000    -0.00772392 
C93      C      0.554580000000     0.742930000000     0.975070000000    -0.0563322  
C94      C      0.513510000000     0.791660000000     0.013710000000    -0.0564285  
C95      C      0.529510000000     0.730610000000     0.000310000000     0.061009   
C96      C      0.498810000000     0.676340000000     0.983690000000    -0.0301537  
C97      C      0.540770000000     0.803980000000     0.990850000000     0.0610451  
C98      C      0.553130000000     0.859540000000     0.021580000000    -0.0574839  
C99      C      0.560530000000     0.779340000000     0.970960000000    -0.054062   
C100     C      0.566820000000     0.897500000000     0.015910000000     0.0980784  
C101     C      0.535970000000     0.897110000000     0.955930000000     0.00241032 
C102     C      0.508490000000     0.755300000000     0.018800000000    -0.0542732  
C103     C      0.480400000000     0.172680000000     0.991690000000    -0.0326286  
C104     C      0.465510000000     0.354040000000     0.024750000000    -0.0304981  
C105     C      0.522140000000     0.389210000000     0.065040000000    -0.00753341 
C106     C      0.460080000000     0.392190000000     0.037250000000    -0.00610066 
C107     C      0.509770000000     0.279890000000     0.020540000000    -0.0561998  
C108     C      0.456670000000     0.241350000000     0.056120000000    -0.054214   
C109     C      0.487000000000     0.297290000000     0.044910000000     0.0611079  
C110     C      0.524290000000     0.350640000000     0.052330000000    -0.0299807  
C111     C      0.479550000000     0.223810000000     0.032350000000     0.0610944  
C112     C      0.497970000000     0.166210000000     0.053710000000    -0.0584167  
C113     C      0.506780000000     0.243280000000     0.015140000000    -0.056262   
C114     C      0.485500000000     0.127480000000     0.054810000000     0.10016    
C115     C      0.468910000000     0.133690000000     0.989460000000     0.00176832 
C116     C      0.460530000000     0.277620000000     0.062540000000    -0.0548945  
C117     C      0.536150000000     0.021140000000     0.857820000000    -0.0256005  
C118     C      0.459330000000     0.008210000000     0.677790000000    -0.0259537  
C119     C      0.522780000000     0.017790000000     0.633560000000    -0.0246411  
C120     C      0.455870000000     0.017710000000     0.638280000000    -0.0234746  
C121     C      0.497230000000     0.984020000000     0.746120000000    -0.0570383  
C122     C      0.499350000000     0.044800000000     0.788900000000    -0.0563859  
C123     C      0.495930000000     0.017870000000     0.730200000000     0.0610012  
C124     C      0.525000000000     0.008290000000     0.673170000000    -0.0256724  
C125     C      0.500620000000     0.010960000000     0.804840000000     0.0599638  
C126     C      0.470870000000     0.020280000000     0.861440000000    -0.0554833  
C127     C      0.499560000000     0.980730000000     0.783140000000    -0.0545992  
C128     C      0.472950000000     0.011700000000     0.901480000000     0.0828633  
C129     C      0.538810000000     0.012300000000     0.897550000000    -0.0172405  
C130     C      0.497040000000     0.048100000000     0.751890000000    -0.0549182  
C131     C      0.548660000000     0.027090000000     0.148090000000    -0.0236843  
C132     C      0.469260000000     0.072820000000     0.321400000000    -0.0261057  
C133     C      0.532080000000     0.080530000000     0.366820000000    -0.0253054  
C134     C      0.465380000000     0.075300000000     0.361880000000    -0.0240627  
C135     C      0.504000000000     0.079500000000     0.249280000000    -0.0571322  
C136     C      0.517710000000     0.010570000000     0.225030000000    -0.0563794  
C137     C      0.507890000000     0.051670000000     0.274040000000     0.0611444  
C138     C      0.534690000000     0.078520000000     0.326180000000    -0.0251333  
C139     C      0.512040000000     0.038140000000     0.200340000000     0.0601931  
C140     C      0.488180000000     0.003940000000     0.150450000000    -0.0541929  
C141     C      0.505740000000     0.072610000000     0.212790000000    -0.054756   
C142     C      0.485200000000     0.005090000000     0.109600000000     0.0787913  
C143     C      0.547040000000     0.029200000000     0.107370000000    -0.0216585  
C144     C      0.515270000000     0.017340000000     0.261600000000    -0.0548346  
C145     C      0.652670000000     0.511370000000     0.506750000000    -0.0249031  
C146     C      0.833510000000     0.451920000000     0.456010000000    -0.0257429  
C147     C      0.870690000000     0.519850000000     0.452560000000    -0.0251848  
C148     C      0.869740000000     0.455280000000     0.437080000000    -0.0236585  
C149     C      0.770990000000     0.474530000000     0.503900000000    -0.0568392  
C150     C      0.713860000000     0.487410000000     0.457340000000    -0.0565306  
C151     C      0.778030000000     0.483290000000     0.468090000000     0.0610571  
C152     C      0.834450000000     0.515280000000     0.471240000000    -0.0253858  
C153     C      0.706820000000     0.478620000000     0.493140000000     0.0606238  
C154     C      0.649120000000     0.448780000000     0.489470000000    -0.0521111  
C155     C      0.735660000000     0.472230000000     0.516190000000    -0.0539267  
C156     C      0.612530000000     0.445650000000     0.508080000000     0.0889119  
C157     C      0.615730000000     0.508480000000     0.524450000000    -0.0119127  
C158     C      0.749190000000     0.489650000000     0.445040000000    -0.0546697  
C159     C      0.362280000000     0.517930000000     0.536850000000    -0.0260483  
C160     C      0.178460000000     0.450880000000     0.562020000000    -0.026439   
C161     C      0.136070000000     0.515770000000     0.559210000000    -0.0248792  
C162     C      0.139940000000     0.451690000000     0.576160000000    -0.0230022  
C163     C      0.245050000000     0.477410000000     0.522340000000    -0.0570556  
C164     C      0.294190000000     0.494110000000     0.576080000000    -0.0561819  
C165     C      0.232530000000     0.486230000000     0.556620000000     0.0610768  
C166     C      0.174700000000     0.513770000000     0.545380000000    -0.0254949  
C167     C      0.306760000000     0.484910000000     0.541910000000     0.0596776  
C168     C      0.363190000000     0.455720000000     0.554760000000    -0.0554063  
C169     C      0.281870000000     0.476730000000     0.515180000000    -0.0544116  
C170     C      0.402690000000     0.452680000000     0.543090000000     0.0818866  
C171     C      0.401360000000     0.515240000000     0.524480000000    -0.0163139  
C172     C      0.257400000000     0.494690000000     0.583250000000    -0.0550059  
C173     C      0.660080000000     0.498530000000     0.035940000000    -0.0226129  
C174     C      0.847270000000     0.558180000000     0.048520000000    -0.0269722  
C175     C      0.878950000000     0.518150000000     0.990060000000    -0.0204591  
C176     C      0.887930000000     0.553270000000     0.045850000000    -0.0219471  
C177     C      0.769070000000     0.556050000000     0.023170000000    -0.0568431  
C178     C      0.737450000000     0.501560000000     0.062880000000    -0.0565803  
C179     C      0.790610000000     0.528760000000     0.037320000000     0.0611427  
C180     C      0.838420000000     0.523550000000     0.993820000000    -0.027376   
C181     C      0.715860000000     0.528750000000     0.048580000000     0.0609806  
C182     C      0.666990000000     0.532810000000     0.091080000000    -0.0553779  
C183     C      0.732010000000     0.555940000000     0.028810000000    -0.0540747  
C184     C      0.626120000000     0.537530000000     0.094160000000     0.0858214  
C185     C      0.619300000000     0.502530000000     0.037670000000    -0.0282073  
C186     C      0.774490000000     0.501670000000     0.057230000000    -0.0547013  
C187     C      0.172570000000     0.473080000000     0.990200000000    -0.0290371  
C188     C      0.360460000000     0.518690000000     0.952440000000    -0.0306123  
C189     C      0.394750000000     0.450910000000     0.967710000000    -0.0231758  
C190     C      0.401070000000     0.516280000000     0.958010000000    -0.0128586  
C191     C      0.284230000000     0.491310000000     0.939690000000    -0.0569731  
C192     C      0.248030000000     0.502420000000     0.003990000000    -0.0564199  
C193     C      0.303790000000     0.493710000000     0.971710000000     0.0613782  
C194     C      0.354310000000     0.454460000000     0.961740000000    -0.0270187  
C195     C      0.228470000000     0.500080000000     0.971980000000     0.0607804  
C196     C      0.177040000000     0.537760000000     0.983790000000    -0.0558033  
C197     C      0.246890000000     0.494530000000     0.939950000000    -0.0540785  
C198     C      0.136280000000     0.540820000000     0.978250000000     0.0859532  
C199     C      0.131930000000     0.474610000000     0.984830000000    -0.0144113  
C200     C      0.285370000000     0.499280000000     0.003730000000    -0.0548929  
C201     C      0.042090000000     0.519860000000     0.659340000000    -0.0330209  
C202     C      0.008630000000     0.485550000000     0.833710000000    -0.03051    
C203     C      0.066020000000     0.470220000000     0.884010000000    -0.00861447 
C204     C      0.999040000000     0.474500000000     0.871570000000    -0.00610551 
C205     C      0.065470000000     0.498190000000     0.768330000000    -0.0560725  
C206     C      0.027880000000     0.449330000000     0.726600000000    -0.0535426  
C207     C      0.047100000000     0.469900000000     0.784870000000     0.0610381  
C208     C      0.072340000000     0.479930000000     0.844850000000    -0.0296218  
C209     C      0.045170000000     0.477950000000     0.710070000000     0.0608375  
C210     C      0.059830000000     0.459060000000     0.649460000000    -0.0584435  
C211     C      0.065420000000     0.501550000000     0.731210000000    -0.0554758  
C212     C      0.040390000000     0.456610000000     0.613560000000     0.10186    
C213     C      0.024950000000     0.522780000000     0.622440000000     0.00284135 
C214     C      0.029300000000     0.445050000000     0.763450000000    -0.0547327  
C215     C      0.967540000000     0.481710000000     0.342480000000    -0.0330368  
C216     C      0.957710000000     0.504300000000     0.156740000000    -0.0305464  
C217     C      0.015460000000     0.544740000000     0.123610000000    -0.00746114 
C218     C      0.954500000000     0.515380000000     0.117730000000    -0.00587618 
C219     C      0.948300000000     0.544700000000     0.232230000000    -0.054922   
C220     C      0.994370000000     0.500260000000     0.270460000000    -0.0559003  
C221     C      0.975630000000     0.526570000000     0.214230000000     0.0610323  
C222     C      0.015600000000     0.533290000000     0.162690000000    -0.0300575  
C223     C      0.966600000000     0.518300000000     0.288400000000     0.060773   
C224     C      0.985060000000     0.543950000000     0.344250000000    -0.0583364  
C225     C      0.943670000000     0.540400000000     0.268870000000    -0.0542086  
C226     C      0.973960000000     0.547470000000     0.383430000000     0.0996383  
C227     C      0.956710000000     0.482350000000     0.381770000000     0.00228805 
C228     C      0.998130000000     0.503490000000     0.233570000000    -0.0561439  
C229     C      0.979380000000     0.647030000000     0.486900000000    -0.0254904  
C230     C      0.968010000000     0.827370000000     0.499290000000    -0.0257297  
C231     C      0.992270000000     0.865790000000     0.562170000000    -0.023929   
C232     C      0.959880000000     0.866970000000     0.503860000000    -0.0237902  
C233     C      0.004450000000     0.756170000000     0.515170000000    -0.0568629  
C234     C      0.949720000000     0.713650000000     0.543060000000    -0.0548336  
C235     C      0.974650000000     0.772180000000     0.531700000000     0.0613573  
C236     C      0.999790000000     0.826200000000     0.556540000000    -0.0254466  
C237     C      0.979250000000     0.697620000000     0.526550000000     0.0602531  
C238     C      0.010900000000     0.644050000000     0.543750000000    -0.0557236  
C239     C      0.006740000000     0.719210000000     0.512620000000    -0.0561236  
C240     C      0.009020000000     0.603200000000     0.542910000000     0.0830868  
C241     C      0.976830000000     0.606480000000     0.485810000000    -0.0170053  
C242     C      0.947440000000     0.750620000000     0.545610000000    -0.0549628  
C243     C      0.017690000000     0.363340000000     0.447810000000    -0.0243044  
C244     C      0.003390000000     0.182090000000     0.425860000000    -0.0265859  
C245     C      0.010290000000     0.134730000000     0.486790000000    -0.0211967  
C246     C      0.006320000000     0.141830000000     0.420720000000    -0.0224135  
C247     C      0.992120000000     0.251600000000     0.466510000000    -0.0565452  
C248     C      0.059460000000     0.284230000000     0.469160000000    -0.0544038  
C249     C      0.023380000000     0.230850000000     0.463100000000     0.060933   
C250     C      0.007040000000     0.175050000000     0.490770000000    -0.0268551  
C251     C      0.028470000000     0.304950000000     0.472640000000     0.0606994  
C252     C      0.017530000000     0.354620000000     0.512340000000    -0.0521489  
C253     C      0.994640000000     0.288350000000     0.471130000000    -0.0563715  
C254     C      0.026080000000     0.394130000000     0.517910000000     0.0882934  
C255     C      0.025340000000     0.402970000000     0.453260000000    -0.0134403  
C256     C      0.056940000000     0.247500000000     0.464420000000    -0.0549321  
C257     C      0.639730000000     0.010600000000     0.426410000000    -0.025473   
C258     C      0.830280000000     0.017530000000     0.475740000000    -0.0262015  
C259     C      0.864110000000     0.042120000000     0.410320000000    -0.0243274  
C260     C      0.870620000000     0.012920000000     0.469780000000    -0.0225932  
C261     C      0.754490000000     0.046160000000     0.460880000000    -0.0570093  
C262     C      0.716480000000     0.985770000000     0.439520000000    -0.056105   
C263     C      0.772970000000     0.017300000000     0.445600000000     0.0613064  
C264     C      0.823840000000     0.046140000000     0.417360000000    -0.025668   
C265     C      0.697950000000     0.014680000000     0.454660000000     0.0599929  
C266     C      0.648830000000     0.986890000000     0.486270000000    -0.0554538  
C267     C      0.717280000000     0.044770000000     0.465250000000    -0.0544955  
C268     C      0.608230000000     0.989160000000     0.493490000000     0.0828595  
C269     C      0.599390000000     0.013560000000     0.433390000000    -0.0171726  
C270     C      0.753650000000     0.987220000000     0.435020000000    -0.0548402  
C271     C      0.172410000000     0.973120000000     0.535870000000    -0.0272476  
C272     C      0.353550000000     0.009300000000     0.468500000000    -0.0228863  
C273     C      0.398670000000     0.965100000000     0.512230000000    -0.0183643  
C274     C      0.394190000000     0.014310000000     0.470750000000    -0.0193411  
C275     C      0.282920000000     0.968690000000     0.478350000000    -0.0568925  
C276     C      0.244610000000     0.010580000000     0.526690000000    -0.0566214  
C277     C      0.301550000000     0.990930000000     0.502200000000     0.061326   
C278     C      0.357950000000     0.959720000000     0.510530000000    -0.0232218  
C279     C      0.225980000000     0.988390000000     0.502800000000     0.0610211  
C280     C      0.171070000000     0.020940000000     0.491470000000    -0.0544603  
C281     C      0.245460000000     0.967490000000     0.478780000000    -0.0539555  
C282     C      0.130310000000     0.016700000000     0.486880000000     0.0839938  
C283     C      0.131910000000     0.967730000000     0.532200000000    -0.0174757  
C284     C      0.282070000000     0.011740000000     0.526310000000    -0.0548387  
C285     C      0.023370000000     0.665230000000     0.976820000000    -0.0314151  
C286     C      0.991590000000     0.847290000000     0.961910000000    -0.0301103  
C287     C      0.961270000000     0.883770000000     0.023340000000    -0.00748008 
C288     C      0.980030000000     0.886080000000     0.958720000000    -0.00675229 
C289     C      0.953320000000     0.772220000000     0.960330000000    -0.0545604  
C290     C      0.002030000000     0.735550000000     0.003280000000    -0.0560507  
C291     C      0.972960000000     0.790940000000     0.986050000000     0.0607846  
C292     C      0.972450000000     0.844620000000     0.023780000000    -0.0301992  
C293     C      0.983130000000     0.717100000000     0.976510000000     0.0608488  
C294     C      0.959920000000     0.658540000000     0.989860000000    -0.0567231  
C295     C      0.958640000000     0.735860000000     0.955350000000    -0.0540202  
C296     C      0.959300000000     0.620410000000     0.975330000000     0.0957132  
C297     C      0.026000000000     0.627130000000     0.962930000000    -0.00224507 
C298     C      0.997840000000     0.772240000000     0.007240000000    -0.0556571  
C299     C      0.055170000000     0.154660000000     0.057790000000    -0.0313168  
C300     C      0.059960000000     0.347290000000     0.045610000000    -0.0303978  
C301     C      0.000070000000     0.372380000000     0.002160000000    -0.0072239  
C302     C      0.060990000000     0.385400000000     0.031500000000    -0.00586467 
C303     C      0.078710000000     0.272360000000     0.009600000000    -0.0545369  
C304     C      0.030540000000     0.228580000000     0.045970000000    -0.0559272  
C305     C      0.048070000000     0.287340000000     0.025120000000     0.0606571  
C306     C      0.003360000000     0.334800000000     0.017090000000    -0.030092   
C307     C      0.061050000000     0.213520000000     0.029660000000     0.0606861  
C308     C      0.049760000000     0.161910000000     0.993620000000    -0.0573886  
C309     C      0.085330000000     0.235980000000     0.012190000000    -0.0541315  
C310     C      0.062740000000     0.123920000000     0.986640000000     0.0966288  
C311     C      0.066980000000     0.115890000000     0.053530000000    -0.0028654  
C312     C      0.024730000000     0.265240000000     0.044670000000    -0.0558109  
C313     C      0.676480000000     0.040540000000     0.027220000000    -0.0335309  
C314     C      0.855630000000     0.050540000000     0.029510000000    -0.0296048  
C315     C      0.900490000000     0.045220000000     0.965590000000    -0.00602543 
C316     C      0.894780000000     0.039800000000     0.034700000000    -0.00589485 
C317     C      0.787120000000     0.004040000000     0.989230000000    -0.0546226  
C318     C      0.746510000000     0.066430000000     0.992950000000    -0.0567256  
C319     C      0.804480000000     0.036810000000     0.992330000000     0.0617774  
C320     C      0.860850000000     0.055580000000     0.965990000000    -0.0293409  
C321     C      0.729260000000     0.033260000000     0.990630000000     0.0615578  
C322     C      0.671500000000     0.047190000000     0.963570000000    -0.0577222  
C323     C      0.749820000000     0.002280000000     0.988390000000    -0.0541319  
C324     C      0.633150000000     0.032340000000     0.962440000000     0.0991672  
C325     C      0.638180000000     0.026770000000     0.030810000000     0.00339349 
C326     C      0.784000000000     0.068200000000     0.993770000000    -0.0569289  
C327     C      0.172610000000     0.958250000000     0.048050000000    -0.0313502  
C328     C      0.360620000000     0.968950000000     0.045860000000    -0.0318276  
C329     C      0.394480000000     0.973540000000     0.975960000000    -0.00151895 
C330     C      0.401220000000     0.964260000000     0.042750000000    -0.00200338 
C331     C      0.283730000000     0.985100000000     0.022170000000    -0.0565337  
C332     C      0.250580000000     0.919060000000     0.013290000000    -0.0543679  
C333     C      0.304770000000     0.954580000000     0.016470000000     0.0611253  
C334     C      0.354250000000     0.977740000000     0.982160000000    -0.0318797  
C335     C      0.229510000000     0.949440000000     0.018120000000     0.0610756  
C336     C      0.177110000000     0.963980000000     0.983620000000    -0.0564032  
C337     C      0.246380000000     0.982570000000     0.022870000000    -0.056397   
C338     C      0.137400000000     0.954830000000     0.978510000000     0.0948989  
C339     C      0.132640000000     0.949340000000     0.045690000000    -0.00202609 
C340     C      0.287920000000     0.921610000000     0.012470000000    -0.0549636  
C341     C      0.001420000000     0.991090000000     0.678110000000    -0.0250228  
C342     C      0.053270000000     0.049790000000     0.857750000000    -0.0303924  
C343     C      0.078740000000     0.983390000000     0.888440000000    -0.019267   
C344     C      0.058120000000     0.045830000000     0.898030000000    -0.0147872  
C345     C      0.060970000000     0.030340000000     0.779120000000    -0.0567818  
C346     C      0.992250000000     0.010030000000     0.757240000000    -0.0562108  
C347     C      0.036140000000     0.017780000000     0.804430000000     0.0613194  
C348     C      0.073500000000     0.988470000000     0.848310000000    -0.0288454  
C349     C      0.017000000000     0.022870000000     0.731970000000     0.0610533  
C350     C      0.978330000000     0.051190000000     0.688460000000    -0.0550704  
C351     C      0.051340000000     0.032880000000     0.743240000000    -0.0539122  
C352     C      0.973130000000     0.057060000000     0.648260000000     0.0856641  
C353     C      0.996780000000     0.995500000000     0.637830000000    -0.0232075  
C354     C      0.001840000000     0.007610000000     0.793140000000    -0.0549684  
C355     C      0.043170000000     0.045660000000     0.362250000000    -0.0282391  
C356     C      0.000450000000     0.036080000000     0.171060000000    -0.0281822  
C357     C      0.071960000000     0.034880000000     0.139850000000    -0.0207653  
C358     C      0.006100000000     0.043860000000     0.131410000000    -0.0207609  
C359     C      0.020700000000     0.010000000000     0.245750000000    -0.0567084  
C360     C      0.023340000000     0.071580000000     0.287330000000    -0.0566989  
C361     C      0.027270000000     0.043030000000     0.229390000000     0.0608613  
C362     C      0.065180000000     0.027240000000     0.179340000000    -0.027635   
C363     C      0.016810000000     0.038530000000     0.303660000000     0.060858   
C364     C      0.978540000000     0.053840000000     0.353620000000    -0.053485   
C365     C      0.015540000000     0.007900000000     0.282560000000    -0.0542073  
C366     C      0.971150000000     0.045060000000     0.392940000000     0.0812558  
C367     C      0.037470000000     0.036830000000     0.401650000000    -0.0161406  
C368     C      0.028520000000     0.073690000000     0.250500000000    -0.0548034  
Cu1      Cu     0.014570000000     0.999550000000     0.039620000000     0.846824   
Cu2      Cu     0.020240000000     0.005280000000     0.974370000000     0.855765   
Cu3      Cu     0.993760000000     0.006060000000     0.488020000000     0.836297   
Cu4      Cu     0.991550000000     0.006140000000     0.554320000000     0.843828   
Cu5      Cu     0.978140000000     0.496260000000     0.994420000000     0.846813   
Cu6      Cu     0.042540000000     0.507220000000     0.004200000000     0.857725   
Cu7      Cu     0.010000000000     0.464650000000     0.493970000000     1.18347    
Cu8      Cu     0.007670000000     0.540080000000     0.502140000000     1.20383    
Cu9      Cu     0.517440000000     0.009280000000     0.041980000000     1.2216     
Cu10     Cu     0.509940000000     0.018240000000     0.966760000000     1.21293    
Cu11     Cu     0.461860000000     0.982730000000     0.475290000000     1.18824    
Cu12     Cu     0.537680000000     0.985650000000     0.466400000000     1.18968    
Cu13     Cu     0.474820000000     0.516210000000     0.019410000000     0.846818   
Cu14     Cu     0.539360000000     0.511800000000     0.033250000000     0.857125   
Cu15     Cu     0.470300000000     0.485480000000     0.533600000000     1.20765    
Cu16     Cu     0.544980000000     0.480810000000     0.518340000000     1.1969     
H1       H      0.552390000000     0.553870000000     0.750560000000     0.0438071  
H2       H      0.595380000000     0.483150000000     0.862760000000     0.0346126  
H3       H      0.483530000000     0.488620000000     0.842750000000     0.0422583  
H4       H      0.575680000000     0.528490000000     0.638260000000     0.0354821  
H5       H      0.567220000000     0.453340000000     0.912430000000     0.0397355  
H6       H      0.486070000000     0.509600000000     0.706420000000     0.0340191  
H7       H      0.597080000000     0.493430000000     0.687860000000     0.0342759  
H8       H      0.473190000000     0.501850000000     0.641780000000     0.0404556  
H9       H      0.472020000000     0.499400000000     0.907350000000     0.0225041  
H10      H      0.551270000000     0.545020000000     0.815260000000     0.0401198  
H11      H      0.584430000000     0.495080000000     0.927930000000     0.0386373  
H12      H      0.541460000000     0.440990000000     0.734820000000     0.0402096  
H13      H      0.571620000000     0.523940000000     0.871500000000     0.0367642  
H14      H      0.584810000000     0.484410000000     0.622470000000     0.0375381  
H15      H      0.501220000000     0.467520000000     0.689050000000     0.0374358  
H16      H      0.565960000000     0.457970000000     0.678490000000     0.0366126  
H17      H      0.540520000000     0.432100000000     0.799540000000     0.0450194  
H18      H      0.506430000000     0.526600000000     0.860730000000     0.0423433  
H19      H      0.500090000000     0.540110000000     0.651620000000     0.0358166  
H20      H      0.483260000000     0.438140000000     0.924890000000     0.0917804  
H21      H      0.465190000000     0.441810000000     0.883510000000     0.0809189  
H22      H      0.539030000000     0.506420000000     0.245950000000     0.0389301  
H23      H      0.524700000000     0.444870000000     0.347560000000     0.0338072  
H24      H      0.436800000000     0.515730000000     0.363150000000     0.0398561  
H25      H      0.502520000000     0.580570000000     0.156640000000     0.0343232  
H26      H      0.493600000000     0.422750000000     0.398330000000     0.0366863  
H27      H      0.431560000000     0.499720000000     0.192510000000     0.0325936  
H28      H      0.531700000000     0.552870000000     0.205980000000     0.0327536  
H29      H      0.435600000000     0.507310000000     0.127750000000     0.0388525  
H30      H      0.441420000000     0.507800000000     0.427950000000     0.0132319  
H31      H      0.538620000000     0.489040000000     0.306570000000     0.0387389  
H32      H      0.534320000000     0.442650000000     0.413800000000     0.0376089  
H33      H      0.423640000000     0.519700000000     0.248460000000     0.0415534  
H34      H      0.532240000000     0.487860000000     0.367940000000     0.0376168  
H35      H      0.539330000000     0.555060000000     0.139680000000     0.0378846  
H36      H      0.471890000000     0.479670000000     0.175830000000     0.0406883  
H37      H      0.530810000000     0.509550000000     0.184890000000     0.0393761  
H38      H      0.422650000000     0.495410000000     0.308250000000     0.0419329  
H39      H      0.480540000000     0.527270000000     0.378910000000     0.0443822  
H40      H      0.436150000000     0.549400000000     0.150730000000     0.0376088  
H41      H      0.421170000000     0.446070000000     0.428870000000     0.0885119  
H42      H      0.401610000000     0.470640000000     0.396160000000     0.077581   
H43      H      0.524370000000     0.717880000000     0.549380000000     0.0438247  
H44      H      0.450790000000     0.807490000000     0.476250000000     0.0346864  
H45      H      0.563290000000     0.811330000000     0.459860000000     0.0420389  
H46      H      0.482300000000     0.613290000000     0.555410000000     0.0362075  
H47      H      0.461000000000     0.855630000000     0.434960000000     0.0389223  
H48      H      0.567870000000     0.653780000000     0.490710000000     0.0338794  
H49      H      0.458270000000     0.660780000000     0.519760000000     0.0338348  
H50      H      0.563730000000     0.586930000000     0.491690000000     0.03715    
H51      H      0.561150000000     0.878130000000     0.460570000000     0.0172752  
H52      H      0.520930000000     0.780510000000     0.531580000000     0.0400512  
H53      H      0.447930000000     0.873860000000     0.477160000000     0.0380168  
H54      H      0.500700000000     0.686120000000     0.441580000000     0.040109   
H55      H      0.479180000000     0.827320000000     0.509680000000     0.0370433  
H56      H      0.454230000000     0.594300000000     0.521610000000     0.0365309  
H57      H      0.534010000000     0.635510000000     0.461730000000     0.0363687  
H58      H      0.470760000000     0.639400000000     0.478610000000     0.0364456  
H59      H      0.497890000000     0.748780000000     0.423630000000     0.0450937  
H60      H      0.544460000000     0.830210000000     0.499640000000     0.0418019  
H61      H      0.559660000000     0.607820000000     0.534390000000     0.0346707  
H62      H      0.535140000000     0.882720000000     0.401330000000     0.0889245  
H63      H      0.562770000000     0.847090000000     0.405860000000     0.0789922  
H64      H      0.509760000000     0.246710000000     0.576460000000     0.0433657  
H65      H      0.551940000000     0.161000000000     0.479530000000     0.0341357  
H66      H      0.440990000000     0.156050000000     0.503550000000     0.0417414  
H67      H      0.547400000000     0.354280000000     0.569070000000     0.0331939  
H68      H      0.528950000000     0.115380000000     0.441200000000     0.0418631  
H69      H      0.446430000000     0.311240000000     0.543300000000     0.033363   
H70      H      0.558880000000     0.307280000000     0.526410000000     0.0333723  
H71      H      0.448420000000     0.377740000000     0.544200000000     0.0366266  
H72      H      0.443490000000     0.089120000000     0.499540000000     0.0140345  
H73      H      0.507090000000     0.184770000000     0.556080000000     0.0398604  
H74      H      0.554530000000     0.094430000000     0.475680000000     0.0365723  
H75      H      0.490050000000     0.282590000000     0.469160000000     0.0403343  
H76      H      0.536810000000     0.138630000000     0.519230000000     0.0363041  
H77      H      0.562280000000     0.373330000000     0.527830000000     0.0361302  
H78      H      0.464600000000     0.330300000000     0.503080000000     0.0370074  
H79      H      0.530900000000     0.328090000000     0.493210000000     0.0376073  
H80      H      0.487060000000     0.220700000000     0.448880000000     0.0457337  
H81      H      0.473060000000     0.135130000000     0.532380000000     0.0415494  
H82      H      0.472880000000     0.357350000000     0.579930000000     0.0340601  
H83      H      0.442180000000     0.088370000000     0.435750000000     0.0894406  
H84      H      0.420760000000     0.124590000000     0.451980000000     0.0776446  
H85      H      0.488340000000     0.746230000000     0.037480000000     0.0436676  
H86      H      0.520340000000     0.844910000000     0.938110000000     0.033961   
H87      H      0.572320000000     0.844780000000     0.038820000000     0.0424434  
H88      H      0.469990000000     0.645560000000     0.023000000000     0.0389522  
H89      H      0.560850000000     0.895570000000     0.939670000000     0.037389   
H90      H      0.577910000000     0.687030000000     0.026830000000     0.0339483  
H91      H      0.474400000000     0.693080000000     0.980550000000     0.0333187  
H92      H      0.574950000000     0.620010000000     0.023510000000     0.0426496  
H93      H      0.566530000000     0.911170000000     0.042210000000     0.0182768  
H94      H      0.496650000000     0.809970000000     0.028260000000     0.0402784  
H95      H      0.515150000000     0.910960000000     0.939890000000     0.0370736  
H96      H      0.570230000000     0.724620000000     0.959230000000     0.0401882  
H97      H      0.496020000000     0.860470000000     0.976640000000     0.0382738  
H98      H      0.471130000000     0.626100000000     0.979400000000     0.0378783  
H99      H      0.569820000000     0.668820000000     0.983070000000     0.0362005  
H100     H      0.510840000000     0.672350000000     0.956820000000     0.0370647  
H101     H      0.580830000000     0.788430000000     0.952460000000     0.0445751  
H102     H      0.527080000000     0.861210000000     0.035960000000     0.0428683  
H103     H      0.545890000000     0.640200000000     0.055580000000     0.0358207  
H104     H      0.612350000000     0.922650000000     0.997710000000     0.0874116  
H105     H      0.620650000000     0.885570000000     0.022220000000     0.079414   
H106     H      0.442480000000     0.290650000000     0.080970000000     0.0437824  
H107     H      0.463750000000     0.188450000000     0.972860000000     0.0344677  
H108     H      0.495620000000     0.177730000000     0.080940000000     0.0414765  
H109     H      0.514600000000     0.389290000000     0.093690000000     0.0372037  
H110     H      0.439250000000     0.132330000000     0.992180000000     0.0375208  
H111     H      0.438640000000     0.341280000000     0.022660000000     0.0331176  
H112     H      0.541240000000     0.335340000000     0.071290000000     0.0338195  
H113     H      0.444770000000     0.406560000000     0.016360000000     0.0376066  
H114     H      0.504240000000     0.112800000000     0.072610000000     0.0135384  
H115     H      0.435950000000     0.226670000000     0.069990000000     0.0450945  
H116     H      0.475900000000     0.123330000000     0.962620000000     0.0387388  
H117     H      0.529970000000     0.294290000000     0.005780000000     0.0398273  
H118     H      0.508950000000     0.174560000000     0.983250000000     0.0363032  
H119     H      0.549220000000     0.401390000000     0.062870000000     0.0417551  
H120     H      0.478080000000     0.353820000000     0.997820000000     0.0378064  
H121     H      0.537450000000     0.350330000000     0.025720000000     0.0365889  
H122     H      0.525530000000     0.230530000000     0.997290000000     0.0397132  
H123     H      0.526760000000     0.167460000000     0.045820000000     0.0428925  
H124     H      0.443610000000     0.392020000000     0.061940000000     0.0371148  
H125     H      0.439250000000     0.099840000000     0.067200000000     0.0879311  
H126     H      0.449960000000     0.132390000000     0.096870000000     0.0765416  
H127     H      0.496040000000     0.074290000000     0.740020000000     0.0434009  
H128     H      0.559730000000     0.009370000000     0.844000000000     0.0311454  
H129     H      0.446160000000     0.008080000000     0.850150000000     0.0386875  
H130     H      0.526310000000     0.046890000000     0.630090000000     0.0383064  
H131     H      0.542560000000     0.983300000000     0.901430000000     0.0339362  
H132     H      0.436170000000     0.019930000000     0.692330000000     0.0328847  
H133     H      0.549950000000     0.020070000000     0.684340000000     0.0328249  
H134     H      0.432530000000     0.003730000000     0.626410000000     0.0349985  
H135     H      0.450570000000     0.026080000000     0.914680000000     0.013215   
H136     H      0.500090000000     0.068610000000     0.805020000000     0.0397788  
H137     H      0.562910000000     0.025890000000     0.908120000000     0.0320701  
H138     H      0.496380000000     0.960240000000     0.729980000000     0.0400158  
H139     H      0.537160000000     0.050500000000     0.854400000000     0.0352247  
H140     H      0.544220000000     0.003850000000     0.618540000000     0.0336812  
H141     H      0.458170000000     0.978810000000     0.680780000000     0.0358526  
H142     H      0.526640000000     0.978890000000     0.675960000000     0.0356544  
H143     H      0.500470000000     0.954540000000     0.795020000000     0.0419993  
H144     H      0.468760000000     0.049590000000     0.858090000000     0.0412456  
H145     H      0.451820000000     0.046810000000     0.635350000000     0.0382355  
H146     H      0.485920000000     0.958400000000     0.892470000000     0.0875913  
H147     H      0.442060000000     0.965990000000     0.903200000000     0.0785994  
H148     H      0.518920000000     0.995770000000     0.280330000000     0.0441338  
H149     H      0.566890000000     0.048380000000     0.157840000000     0.0308605  
H150     H      0.461070000000     0.007620000000     0.162320000000     0.0382712  
H151     H      0.537140000000     0.053910000000     0.378560000000     0.0434593  
H152     H      0.540320000000     0.056710000000     0.099070000000     0.0359895  
H153     H      0.447320000000     0.055750000000     0.310890000000     0.0333839  
H154     H      0.560630000000     0.065740000000     0.319050000000     0.0326951  
H155     H      0.441090000000     0.090930000000     0.368720000000     0.0334782  
H156     H      0.470280000000     0.980900000000     0.101410000000     0.0143925  
H157     H      0.523470000000     0.983860000000     0.216080000000     0.0401458  
H158     H      0.574110000000     0.022760000000     0.096990000000     0.0351555  
H159     H      0.499170000000     0.106430000000     0.258080000000     0.0398586  
H160     H      0.559850000000     0.000960000000     0.156480000000     0.03482    
H161     H      0.552360000000     0.099380000000     0.377350000000     0.0328746  
H162     H      0.466070000000     0.099920000000     0.310000000000     0.0356258  
H163     H      0.534520000000     0.105910000000     0.315000000000     0.0358175  
H164     H      0.501930000000     0.094160000000     0.194070000000     0.0411758  
H165     H      0.498300000000     0.977360000000     0.158680000000     0.0402653  
H166     H      0.462540000000     0.048320000000     0.373360000000     0.0392571  
H167     H      0.437990000000     0.033630000000     0.105150000000     0.0775169  
H168     H      0.475470000000     0.059670000000     0.108780000000     0.0883762  
H169     H      0.754180000000     0.496470000000     0.417460000000     0.043604   
H170     H      0.668940000000     0.531080000000     0.521800000000     0.0326618  
H171     H      0.663230000000     0.422780000000     0.490960000000     0.0403761  
H172     H      0.866470000000     0.530270000000     0.425180000000     0.0396112  
H173     H      0.618690000000     0.502950000000     0.553390000000     0.0386375  
H174     H      0.817620000000     0.430810000000     0.442540000000     0.0329883  
H175     H      0.819250000000     0.540600000000     0.468950000000     0.0330665  
H176     H      0.886130000000     0.431100000000     0.441710000000     0.03598    
H177     H      0.595950000000     0.426080000000     0.493230000000     0.00832184 
H178     H      0.692110000000     0.492650000000     0.439000000000     0.0399645  
H179     H      0.601940000000     0.534380000000     0.521640000000     0.0314492  
H180     H      0.792760000000     0.469570000000     0.522300000000     0.0405672  
H181     H      0.649210000000     0.521270000000     0.479010000000     0.0353752  
H182     H      0.887710000000     0.538890000000     0.467540000000     0.0359099  
H183     H      0.838140000000     0.443710000000     0.484130000000     0.0366224  
H184     H      0.839120000000     0.509750000000     0.500010000000     0.0357962  
H185     H      0.730680000000     0.465560000000     0.543810000000     0.044646   
H186     H      0.644730000000     0.455210000000     0.460860000000     0.0408355  
H187     H      0.865420000000     0.458430000000     0.407950000000     0.0372485  
H188     H      0.594030000000     0.435740000000     0.559500000000     0.0920282  
H189     H      0.625960000000     0.406880000000     0.544850000000     0.0788803  
H190     H      0.248190000000     0.501560000000     0.609720000000     0.0433018  
H191     H      0.348260000000     0.537730000000     0.519810000000     0.0316584  
H192     H      0.349820000000     0.429550000000     0.551050000000     0.0386657  
H193     H      0.135880000000     0.526820000000     0.586660000000     0.0384761  
H194     H      0.402580000000     0.509900000000     0.495400000000     0.0351443  
H195     H      0.194020000000     0.431210000000     0.577840000000     0.0328109  
H196     H      0.187510000000     0.540210000000     0.549010000000     0.0331847  
H197     H      0.126220000000     0.426240000000     0.570130000000     0.0303819  
H198     H      0.416140000000     0.434990000000     0.562650000000     0.0128961  
H199     H      0.312780000000     0.500600000000     0.597240000000     0.0396775  
H200     H      0.414260000000     0.541270000000     0.529390000000     0.0336178  
H201     H      0.226400000000     0.470840000000     0.501250000000     0.0403048  
H202     H      0.361710000000     0.527610000000     0.564870000000     0.0355663  
H203     H      0.119750000000     0.533270000000     0.541800000000     0.0394864  
H204     H      0.178140000000     0.442020000000     0.533730000000     0.0365163  
H205     H      0.174280000000     0.507520000000     0.516390000000     0.0357052  
H206     H      0.291100000000     0.469630000000     0.488770000000     0.0418329  
H207     H      0.362400000000     0.462300000000     0.583670000000     0.0410121  
H208     H      0.140270000000     0.455580000000     0.605490000000     0.035058   
H209     H      0.399520000000     0.409860000000     0.508760000000     0.0782571  
H210     H      0.389400000000     0.449460000000     0.489060000000     0.0856209  
H211     H      0.790730000000     0.480520000000     0.068270000000     0.043535   
H212     H      0.668200000000     0.497050000000     0.007450000000     0.0339797  
H213     H      0.680660000000     0.556120000000     0.103240000000     0.0413518  
H214     H      0.886640000000     0.491820000000     0.001060000000     0.0286753  
H215     H      0.610690000000     0.524780000000     0.020200000000     0.0354486  
H216     H      0.839850000000     0.560010000000     0.077170000000     0.0328481  
H217     H      0.824530000000     0.499980000000     0.982440000000     0.0332878  
H218     H      0.901970000000     0.577690000000     0.054800000000     0.0352245  
H219     H      0.618020000000     0.535170000000     0.122580000000     0.00954301 
H220     H      0.725650000000     0.480220000000     0.078230000000     0.0399025  
H221     H      0.606170000000     0.477740000000     0.028400000000     0.0286112  
H222     H      0.780860000000     0.577310000000     0.007720000000     0.039991   
H223     H      0.667910000000     0.473240000000     0.049190000000     0.034994   
H224     H      0.886810000000     0.519190000000     0.961550000000     0.0283219  
H225     H      0.839640000000     0.583520000000     0.035250000000     0.0353176  
H226     H      0.830310000000     0.547390000000     0.978230000000     0.0355598  
H227     H      0.715750000000     0.577000000000     0.017640000000     0.0450114  
H228     H      0.675020000000     0.508800000000     0.106450000000     0.0409808  
H229     H      0.896350000000     0.530740000000     0.063000000000     0.0420189  
H230     H      0.587310000000     0.574600000000     0.082280000000     0.0917271  
H231     H      0.626830000000     0.592400000000     0.096040000000     0.0777216  
H232     H      0.300060000000     0.501070000000     0.028550000000     0.0438263  
H233     H      0.182530000000     0.447290000000     0.979630000000     0.0340003  
H234     H      0.190770000000     0.559470000000     0.968990000000     0.0415088  
H235     H      0.400520000000     0.451070000000     0.996740000000     0.040614   
H236     H      0.125280000000     0.468250000000     0.956690000000     0.044247   
H237     H      0.351160000000     0.545150000000     0.961890000000     0.0340536  
H238     H      0.340430000000     0.433870000000     0.977930000000     0.0330256  
H239     H      0.415110000000     0.534830000000     0.939730000000     0.0332585  
H240     H      0.126190000000     0.564890000000     0.992200000000     0.00669603 
H241     H      0.234450000000     0.506540000000     0.029130000000     0.0398881  
H242     H      0.118580000000     0.454910000000     0.002370000000     0.035377   
H243     H      0.297810000000     0.486870000000     0.914610000000     0.0399     
H244     H      0.178580000000     0.474180000000     0.019240000000     0.0354433  
H245     H      0.404690000000     0.425640000000     0.956110000000     0.0318587  
H246     H      0.354520000000     0.516530000000     0.923450000000     0.0360224  
H247     H      0.348200000000     0.449540000000     0.933130000000     0.0352883  
H248     H      0.232190000000     0.492580000000     0.915150000000     0.0443185  
H249     H      0.183020000000     0.541320000000     0.012630000000     0.0404523  
H250     H      0.407810000000     0.523530000000     0.985910000000     0.0194927  
H251     H      0.099910000000     0.544980000000     0.937170000000     0.0925548  
H252     H      0.139250000000     0.566430000000     0.929620000000     0.0781241  
H253     H      0.014750000000     0.423320000000     0.775640000000     0.043564   
H254     H      0.027720000000     0.538320000000     0.677590000000     0.033485   
H255     H      0.061680000000     0.432040000000     0.661370000000     0.0400285  
H256     H      0.069300000000     0.441040000000     0.887090000000     0.0370482  
H257     H      0.995320000000     0.524230000000     0.625660000000     0.0375913  
H258     H      0.985980000000     0.477680000000     0.816050000000     0.0339571  
H259     H      0.097610000000     0.467110000000     0.835720000000     0.0338916  
H260     H      0.974930000000     0.489760000000     0.879960000000     0.0391482  
H261     H      0.057520000000     0.440960000000     0.594980000000     0.0126757  
H262     H      0.012300000000     0.430800000000     0.710860000000     0.044724   
H263     H      0.033640000000     0.548330000000     0.610330000000     0.0357417  
H264     H      0.079220000000     0.518210000000     0.783780000000     0.0395524  
H265     H      0.070660000000     0.528370000000     0.657690000000     0.0344731  
H266     H      0.087110000000     0.483150000000     0.900430000000     0.0423528  
H267     H      0.011560000000     0.514960000000     0.832170000000     0.038267   
H268     H      0.075630000000     0.509250000000     0.843040000000     0.0359521  
H269     H      0.079740000000     0.523620000000     0.719490000000     0.0390729  
H270     H      0.087750000000     0.468840000000     0.645590000000     0.0428626  
H271     H      0.991840000000     0.445840000000     0.871640000000     0.037612   
H272     H      0.991210000000     0.438240000000     0.595100000000     0.0933767  
H273     H      0.011180000000     0.411350000000     0.625570000000     0.0768038  
H274     H      0.018960000000     0.488350000000     0.220520000000     0.039781   
H275     H      0.950640000000     0.461860000000     0.328330000000     0.0340163  
H276     H      0.982070000000     0.570270000000     0.331030000000     0.0415516  
H277     H      0.006910000000     0.572990000000     0.122180000000     0.0360994  
H278     H      0.927180000000     0.486040000000     0.383280000000     0.0409985  
H279     H      0.930150000000     0.502140000000     0.167960000000     0.0335033  
H280     H      0.031170000000     0.553070000000     0.178370000000     0.033746   
H281     H      0.940430000000     0.493890000000     0.102980000000     0.0390416  
H282     H      0.993350000000     0.565940000000     0.396330000000     0.0146943  
H283     H      0.013190000000     0.483640000000     0.284660000000     0.0394705  
H284     H      0.963060000000     0.456170000000     0.393910000000     0.0377725  
H285     H      0.930440000000     0.562150000000     0.217710000000     0.0434331  
H286     H      0.996050000000     0.473130000000     0.340860000000     0.0361281  
H287     H      0.043310000000     0.543230000000     0.113150000000     0.0411597  
H288     H      0.970720000000     0.477730000000     0.158660000000     0.038558   
H289     H      0.029370000000     0.507140000000     0.164560000000     0.0369059  
H290     H      0.922510000000     0.554870000000     0.282290000000     0.0447587  
H291     H      0.013900000000     0.536320000000     0.342610000000     0.0431065  
H292     H      0.937730000000     0.539760000000     0.116170000000     0.0349645  
H293     H      0.930370000000     0.564050000000     0.412760000000     0.0856283  
H294     H      0.937930000000     0.588530000000     0.375480000000     0.0770038  
H295     H      0.924350000000     0.762560000000     0.558390000000     0.0441668  
H296     H      0.955480000000     0.658240000000     0.473150000000     0.0311908  
H297     H      0.010410000000     0.653190000000     0.571940000000     0.0388427  
H298     H      0.968400000000     0.869140000000     0.579590000000     0.0412714  
H299     H      0.950500000000     0.597500000000     0.496320000000     0.0344949  
H300     H      0.945770000000     0.815050000000     0.483870000000     0.0335569  
H301     H      0.000830000000     0.813000000000     0.583040000000     0.0331375  
H302     H      0.961580000000     0.880720000000     0.477750000000     0.0391953  
H303     H      0.034550000000     0.593070000000     0.554350000000     0.0124387  
H304     H      0.928370000000     0.697410000000     0.553880000000     0.0428179  
H305     H      0.978500000000     0.598230000000     0.457540000000     0.0323761  
H306     H      0.025840000000     0.772200000000     0.504170000000     0.0401952  
H307     H      0.003820000000     0.655580000000     0.472150000000     0.0354078  
H308     H      0.015640000000     0.878740000000     0.575080000000     0.0380082  
H309     H      0.993280000000     0.824320000000     0.483780000000     0.0368113  
H310     H      0.026440000000     0.823100000000     0.543510000000     0.0358783  
H311     H      0.029850000000     0.707530000000     0.499700000000     0.0397806  
H312     H      0.036840000000     0.652630000000     0.531810000000     0.0414205  
H313     H      0.932370000000     0.870440000000     0.514720000000     0.0389257  
H314     H      0.984830000000     0.593610000000     0.591530000000     0.0788511  
H315     H      0.954990000000     0.602230000000     0.558140000000     0.0889454  
H316     H      0.081210000000     0.231890000000     0.461940000000     0.0439096  
H317     H      0.030600000000     0.354720000000     0.422530000000     0.0325518  
H318     H      0.029530000000     0.338920000000     0.534460000000     0.0395537  
H319     H      0.039000000000     0.126850000000     0.487890000000     0.041499   
H320     H      0.054640000000     0.408170000000     0.451480000000     0.0407448  
H321     H      0.015910000000     0.195430000000     0.402520000000     0.0325676  
H322     H      0.022140000000     0.183310000000     0.514950000000     0.0335542  
H323     H      0.988920000000     0.133200000000     0.398350000000     0.0347889  
H324     H      0.012900000000     0.402840000000     0.542950000000     0.00641525 
H325     H      0.085650000000     0.296630000000     0.470260000000     0.0448861  
H326     H      0.012020000000     0.417920000000     0.431560000000     0.0322561  
H327     H      0.965860000000     0.239390000000     0.465750000000     0.039827   
H328     H      0.988200000000     0.359350000000     0.445300000000     0.0352675  
H329     H      0.995700000000     0.121240000000     0.508720000000     0.0387818  
H330     H      0.974520000000     0.189600000000     0.426770000000     0.0358663  
H331     H      0.978300000000     0.182170000000     0.494560000000     0.0367137  
H332     H      0.970270000000     0.303740000000     0.473690000000     0.0396884  
H333     H      0.987910000000     0.350870000000     0.513260000000     0.0408844  
H334     H      0.034510000000     0.134510000000     0.414480000000     0.0399319  
H335     H      0.071330000000     0.426030000000     0.522290000000     0.0944972  
H336     H      0.074430000000     0.386530000000     0.543890000000     0.0787408  
H337     H      0.767530000000     0.964760000000     0.423420000000     0.0437285  
H338     H      0.647710000000     0.032200000000     0.407790000000     0.0313669  
H339     H      0.663570000000     0.990920000000     0.511730000000     0.0394168  
H340     H      0.868960000000     0.018130000000     0.393770000000     0.0352156  
H341     H      0.592520000000     0.040830000000     0.442310000000     0.0355535  
H342     H      0.820600000000     0.995210000000     0.492620000000     0.0342944  
H343     H      0.809410000000     0.044750000000     0.391460000000     0.0326266  
H344     H      0.885190000000     0.016970000000     0.495210000000     0.0414051  
H345     H      0.600860000000     0.965690000000     0.509890000000     0.0135163  
H346     H      0.702260000000     0.962090000000     0.431320000000     0.039877   
H347     H      0.585210000000     0.008670000000     0.407920000000     0.0329482  
H348     H      0.768810000000     0.069610000000     0.469550000000     0.0402388  
H349     H      0.645350000000     0.984630000000     0.413370000000     0.03567    
H350     H      0.874440000000     0.065730000000     0.395890000000     0.032543   
H351     H      0.825450000000     0.042860000000     0.490290000000     0.037073   
H352     H      0.818770000000     0.072680000000     0.429420000000     0.0358387  
H353     H      0.703420000000     0.067110000000     0.477100000000     0.0420185  
H354     H      0.655250000000     0.959770000000     0.476300000000     0.0416143  
H355     H      0.876240000000     0.985650000000     0.459890000000     0.0424969  
H356     H      0.607590000000     0.019020000000     0.539700000000     0.0809015  
H357     H      0.610040000000     0.044150000000     0.501890000000     0.0873765  
H358     H      0.296020000000     0.029080000000     0.544690000000     0.0432966  
H359     H      0.184920000000     0.947150000000     0.542610000000     0.0340981  
H360     H      0.182970000000     0.030330000000     0.465960000000     0.041587   
H361     H      0.405500000000     0.982970000000     0.534830000000     0.0389456  
H362     H      0.126430000000     0.945280000000     0.513760000000     0.0421099  
H363     H      0.340910000000     0.035700000000     0.464070000000     0.0312059  
H364     H      0.348540000000     0.949920000000     0.536880000000     0.0324275  
H365     H      0.404210000000     0.024550000000     0.444870000000     0.0305961  
H366     H      0.117850000000     0.043370000000     0.483910000000     0.0126798  
H367     H      0.230210000000     0.027080000000     0.545460000000     0.0401223  
H368     H      0.119970000000     0.961480000000     0.558560000000     0.036167   
H369     H      0.297300000000     0.952500000000     0.459300000000     0.0408334  
H370     H      0.177660000000     0.991950000000     0.558140000000     0.0364834  
H371     H      0.411880000000     0.939060000000     0.516710000000     0.0327064  
H372     H      0.347190000000     0.991950000000     0.445320000000     0.0366828  
H373     H      0.351800000000     0.939160000000     0.490110000000     0.0361569  
H374     H      0.231500000000     0.950370000000     0.460210000000     0.0452309  
H375     H      0.176240000000     0.041650000000     0.512030000000     0.0411071  
H376     H      0.400700000000     0.034080000000     0.491790000000     0.0364976  
H377     H      0.094450000000     0.991390000000     0.453730000000     0.0925254  
H378     H      0.130720000000     0.008650000000     0.432430000000     0.0779555  
H379     H      0.014060000000     0.785600000000     0.026960000000     0.0398522  
H380     H      0.043590000000     0.681790000000     0.962700000000     0.0338738  
H381     H      0.932780000000     0.670450000000     0.986530000000     0.0412704  
H382     H      0.931810000000     0.885140000000     0.018940000000     0.0366484  
H383     H      0.024950000000     0.627850000000     0.933340000000     0.0377864  
H384     H      0.989010000000     0.834830000000     0.935130000000     0.0333985  
H385     H      0.955210000000     0.830120000000     0.043110000000     0.0338563  
H386     H      0.998530000000     0.899680000000     0.939930000000     0.0394491  
H387     H      0.940680000000     0.604800000000     0.992430000000     0.0217939  
H388     H      0.020580000000     0.722050000000     0.020770000000     0.0397106  
H389     H      0.052550000000     0.616040000000     0.970540000000     0.0377368  
H390     H      0.934350000000     0.786120000000     0.943510000000     0.0435514  
H391     H      0.029910000000     0.664990000000     0.005740000000     0.0365664  
H392     H      0.966910000000     0.895600000000     0.049870000000     0.0407938  
H393     H      0.020280000000     0.845790000000     0.970100000000     0.0382771  
H394     H      0.000770000000     0.843200000000     0.033050000000     0.0373011  
H395     H      0.943520000000     0.722120000000     0.934930000000     0.0447435  
H396     H      0.965960000000     0.658130000000     0.018930000000     0.0430593  
H397     H      0.952590000000     0.887030000000     0.947140000000     0.0374891  
H398     H      0.946530000000     0.594350000000     0.928720000000     0.0912211  
H399     H      0.919050000000     0.629060000000     0.938370000000     0.0794708  
H400     H      0.001220000000     0.275840000000     0.057770000000     0.0392985  
H401     H      0.067630000000     0.165710000000     0.082320000000     0.0341372  
H402     H      0.057110000000     0.178750000000     0.970340000000     0.0413722  
H403     H      0.005260000000     0.371490000000     0.973000000000     0.0378397  
H404     H      0.096710000000     0.114770000000     0.055470000000     0.0392568  
H405     H      0.088100000000     0.338190000000     0.049490000000     0.0331081  
H406     H      0.988860000000     0.316320000000     0.998970000000     0.0336714  
H407     H      0.071140000000     0.403170000000     0.052930000000     0.0376006  
H408     H      0.047890000000     0.113970000000     0.962910000000     0.0160962  
H409     H      0.010770000000     0.212300000000     0.059230000000     0.0394938  
H410     H      0.055920000000     0.100120000000     0.076020000000     0.0411132  
H411     H      0.097180000000     0.288950000000     0.994800000000     0.0435168  
H412     H      0.025510000000     0.154950000000     0.061040000000     0.0364831  
H413     H      0.971890000000     0.381430000000     0.005720000000     0.039973   
H414     H      0.046260000000     0.346470000000     0.071970000000     0.0371475  
H415     H      0.990160000000     0.333950000000     0.043680000000     0.0353124  
H416     H      0.108700000000     0.224910000000     0.999140000000     0.044819   
H417     H      0.019950000000     0.162150000000     0.995880000000     0.0437423  
H418     H      0.080500000000     0.386780000000     0.009110000000     0.0377516  
H419     H      0.109830000000     0.097750000000     0.975040000000     0.0894911  
H420     H      0.105900000000     0.138050000000     0.955000000000     0.0781899  
H421     H      0.796960000000     0.093800000000     0.996170000000     0.0393533  
H422     H      0.692780000000     0.029080000000     0.049270000000     0.0341301  
H423     H      0.684990000000     0.042130000000     0.937590000000     0.0416466  
H424     H      0.903400000000     0.020460000000     0.949630000000     0.0417537  
H425     H      0.639140000000     0.997790000000     0.036520000000     0.0373305  
H426     H      0.839570000000     0.039150000000     0.051770000000     0.0336737  
H427     H      0.848740000000     0.048010000000     0.939950000000     0.0339236  
H428     H      0.907560000000     0.057980000000     0.054310000000     0.0354457  
H429     H      0.617230000000     0.049110000000     0.943790000000     0.0127891  
H430     H      0.731030000000     0.090660000000     0.994840000000     0.039425   
H431     H      0.625620000000     0.039830000000     0.054280000000     0.033897   
H432     H      0.802630000000     0.979750000000     0.988120000000     0.0457689  
H433     H      0.676750000000     0.069990000000     0.030140000000     0.0350148  
H434     H      0.916090000000     0.066020000000     0.951360000000     0.0360848  
H435     H      0.853090000000     0.079990000000     0.030940000000     0.0334772  
H436     H      0.858190000000     0.084920000000     0.968840000000     0.033573   
H437     H      0.736780000000     0.976630000000     0.986740000000     0.0460126  
H438     H      0.670630000000     0.076510000000     0.967490000000     0.0403409  
H439     H      0.895400000000     0.012850000000     0.046890000000     0.0407959  
H440     H      0.608430000000     0.984710000000     0.949070000000     0.0894827  
H441     H      0.643220000000     0.995950000000     0.922230000000     0.0776432  
H442     H      0.303810000000     0.897960000000     0.007990000000     0.0440637  
H443     H      0.184010000000     0.944660000000     0.071820000000     0.0342829  
H444     H      0.192370000000     0.955430000000     0.959590000000     0.0419183  
H445     H      0.399820000000     0.946150000000     0.966230000000     0.0346447  
H446     H      0.129460000000     0.920010000000     0.047080000000     0.0396696  
H447     H      0.351050000000     0.953240000000     0.069120000000     0.0334581  
H448     H      0.339920000000     0.968620000000     0.957800000000     0.0334074  
H449     H      0.413950000000     0.976730000000     0.066400000000     0.0361771  
H450     H      0.127430000000     0.971270000000     0.955960000000     0.0211431  
H451     H      0.237940000000     0.893470000000     0.009340000000     0.0452835  
H452     H      0.118860000000     0.960930000000     0.069240000000     0.0396551  
H453     H      0.296120000000     0.010900000000     0.025260000000     0.0396531  
H454     H      0.175690000000     0.987420000000     0.051770000000     0.0369025  
H455     H      0.402600000000     0.992280000000     0.954550000000     0.0377956  
H456     H      0.354440000000     0.997450000000     0.050910000000     0.0358358  
H457     H      0.347980000000     0.006370000000     0.986260000000     0.0368011  
H458     H      0.230700000000     0.006510000000     0.026290000000     0.0399149  
H459     H      0.179930000000     0.993340000000     0.985950000000     0.0431945  
H460     H      0.407570000000     0.935420000000     0.043440000000     0.0354381  
H461     H      0.106250000000     0.911140000000     0.966870000000     0.0871682  
H462     H      0.145860000000     0.912410000000     0.944480000000     0.0777881  
H463     H      0.982510000000     0.997790000000     0.812290000000     0.0440631  
H464     H      0.024550000000     0.973070000000     0.683000000000     0.0347141  
H465     H      0.984150000000     0.077090000000     0.701540000000     0.0418026  
H466     H      0.054880000000     0.969950000000     0.900010000000     0.0340911  
H467     H      0.022830000000     0.003070000000     0.625590000000     0.0364981  
H468     H      0.030880000000     0.068680000000     0.852750000000     0.0341773  
H469     H      0.065910000000     0.962470000000     0.836420000000     0.0334263  
H470     H      0.068290000000     0.071010000000     0.909630000000     0.0343924  
H471     H      0.947810000000     0.072000000000     0.643690000000     0.0118639  
H472     H      0.965590000000     0.001970000000     0.749220000000     0.0402707  
H473     H      0.987660000000     0.970130000000     0.625790000000     0.0297506  
H474     H      0.087710000000     0.038210000000     0.787100000000     0.0401655  
H475     H      0.976870000000     0.978510000000     0.689350000000     0.036023   
H476     H      0.102760000000     0.966720000000     0.893510000000     0.032166   
H477     H      0.078250000000     0.061160000000     0.846150000000     0.0361399  
H478     H      0.099330000000     0.997150000000     0.836230000000     0.036012   
H479     H      0.070680000000     0.042700000000     0.724090000000     0.045543   
H480     H      0.952840000000     0.040790000000     0.699880000000     0.0414799  
H481     H      0.031910000000     0.039330000000     0.910540000000     0.022534   
H482     H      0.999390000000     0.080290000000     0.606020000000     0.0934581  
H483     H      0.004350000000     0.102330000000     0.645190000000     0.0797359  
H484     H      0.033530000000     0.099270000000     0.238310000000     0.0431298  
H485     H      0.067150000000     0.030910000000     0.352620000000     0.0333626  
H486     H      0.955070000000     0.045660000000     0.337220000000     0.0406786  
H487     H      0.080070000000     0.063070000000     0.136350000000     0.0376541  
H488     H      0.037510000000     0.007560000000     0.405430000000     0.0343578  
H489     H      0.976860000000     0.051560000000     0.180470000000     0.0334649  
H490     H      0.088940000000     0.036250000000     0.194840000000     0.0333221  
H491     H      0.983710000000     0.032550000000     0.115550000000     0.0290273  
H492     H      0.949630000000     0.062780000000     0.403170000000     0.0202927  
H493     H      0.024400000000     0.095660000000     0.303020000000     0.0391037  
H494     H      0.059430000000     0.048440000000     0.417890000000     0.0358866  
H495     H      0.019550000000     0.985900000000     0.230090000000     0.0402177  
H496     H      0.048510000000     0.074630000000     0.359510000000     0.0347147  
H497     H      0.093740000000     0.017540000000     0.129640000000     0.0344399  
H498     H      0.994460000000     0.007310000000     0.174470000000     0.0350537  
H499     H      0.062150000000     0.998070000000     0.183110000000     0.0357808  
H500     H      0.010490000000     0.982320000000     0.294740000000     0.0451753  
H501     H      0.981710000000     0.083100000000     0.350760000000     0.0394504  
H502     H      0.006980000000     0.073030000000     0.126970000000     0.039121   
H503     H      0.955740000000     0.002470000000     0.423710000000     0.0815078  
H504     H      0.935920000000     0.003830000000     0.382970000000     0.081571   
N1       N      0.526940000000     0.491380000000     0.923210000000    -0.17837    
N2       N      0.539880000000     0.481800000000     0.849710000000    -0.106769   
N3       N      0.542710000000     0.505170000000     0.700340000000    -0.113502   
N4       N      0.529020000000     0.498750000000     0.626680000000    -0.181462   
N5       N      0.488150000000     0.446590000000     0.898800000000    -0.190501   
N6       N      0.485510000000     0.471220000000     0.425240000000    -0.192637   
N7       N      0.478440000000     0.478210000000     0.350240000000    -0.104816   
N8       N      0.480180000000     0.528090000000     0.204620000000    -0.112485   
N9       N      0.486400000000     0.534270000000     0.129540000000    -0.168474   
N10      N      0.425690000000     0.459260000000     0.404770000000    -0.190723   
N11      N      0.503520000000     0.880680000000     0.462520000000    -0.191072   
N12      N      0.506620000000     0.805730000000     0.464540000000    -0.106549   
N13      N      0.514270000000     0.660960000000     0.508820000000    -0.113282   
N14      N      0.511020000000     0.586340000000     0.515070000000    -0.182153   
N15      N      0.538150000000     0.857960000000     0.413610000000    -0.190906   
N16      N      0.497130000000     0.087830000000     0.478720000000    -0.190369   
N17      N      0.495450000000     0.162240000000     0.487560000000    -0.106058   
N18      N      0.502910000000     0.305250000000     0.537400000000    -0.113599   
N19      N      0.506120000000     0.380190000000     0.540510000000    -0.182456   
N20      N      0.445870000000     0.112590000000     0.448830000000    -0.188979   
N21      N      0.543920000000     0.915790000000     0.989540000000    -0.192437   
N22      N      0.548930000000     0.841270000000     0.987060000000    -0.106607   
N23      N      0.524420000000     0.693360000000     0.007890000000    -0.113429   
N24      N      0.518580000000     0.619170000000     0.010970000000    -0.167815   
N25      N      0.603830000000     0.896690000000     0.002910000000    -0.191328   
N26      N      0.485300000000     0.112500000000     0.018360000000    -0.193523   
N27      N      0.475570000000     0.185880000000     0.028320000000    -0.106143   
N28      N      0.488030000000     0.335210000000     0.050650000000    -0.113634   
N29      N      0.494800000000     0.409400000000     0.044990000000    -0.167939   
N30      N      0.449310000000     0.125620000000     0.069850000000    -0.191325   
N31      N      0.506840000000     0.024850000000     0.916810000000    -0.239088   
N32      N      0.502770000000     0.006420000000     0.842980000000    -0.1133     
N33      N      0.493330000000     0.022400000000     0.692090000000    -0.115236   
N34      N      0.488180000000     0.007380000000     0.619820000000    -0.104746   
N35      N      0.468580000000     0.973560000000     0.908190000000    -0.190609   
N36      N      0.520840000000     0.003970000000     0.092290000000    -0.237178   
N37      N      0.512470000000     0.032240000000     0.162400000000    -0.114066   
N38      N      0.504520000000     0.057510000000     0.311920000000    -0.115242   
N39      N      0.496640000000     0.092370000000     0.376740000000    -0.102207   
N40      N      0.464950000000     0.036320000000     0.097940000000    -0.194123   
N41      N      0.594520000000     0.480470000000     0.507100000000    -0.2408     
N42      N      0.670730000000     0.476550000000     0.507020000000    -0.108753   
N43      N      0.814140000000     0.486090000000     0.454400000000    -0.115151   
N44      N      0.888590000000     0.485930000000     0.450600000000    -0.101868   
N45      N      0.617670000000     0.433420000000     0.544820000000    -0.194512   
N46      N      0.420600000000     0.487540000000     0.544450000000    -0.23811    
N47      N      0.344610000000     0.483110000000     0.533700000000    -0.11326    
N48      N      0.194790000000     0.486460000000     0.565330000000    -0.115311   
N49      N      0.120700000000     0.480590000000     0.559650000000    -0.104183   
N50      N      0.406020000000     0.436850000000     0.507560000000    -0.193442   
N51      N      0.608610000000     0.509820000000     0.073920000000    -0.125066   
N52      N      0.677430000000     0.529230000000     0.053290000000    -0.108444   
N53      N      0.828910000000     0.527710000000     0.031780000000    -0.115048   
N54      N      0.897480000000     0.545710000000     0.009390000000    -0.103586   
N55      N      0.615220000000     0.572320000000     0.080620000000    -0.190942   
N56      N      0.119130000000     0.509820000000     0.993310000000    -0.133266   
N57      N      0.189860000000     0.502830000000     0.971200000000    -0.107873   
N58      N      0.342320000000     0.490220000000     0.972620000000    -0.115115   
N59      N      0.412840000000     0.480430000000     0.951050000000    -0.105675   
N60      N      0.127740000000     0.543450000000     0.940300000000    -0.191096   
N61      N      0.033410000000     0.492470000000     0.598680000000    -0.191588   
N62      N      0.039330000000     0.483190000000     0.672320000000    -0.105213   
N63      N      0.041950000000     0.467680000000     0.823010000000    -0.11348    
N64      N      0.029540000000     0.480040000000     0.896000000000    -0.168077   
N65      N      0.006310000000     0.437800000000     0.618540000000    -0.191449   
N66      N      0.974250000000     0.512120000000     0.400580000000    -0.193135   
N67      N      0.962490000000     0.517190000000     0.326660000000    -0.10634    
N68      N      0.978540000000     0.531150000000     0.176120000000    -0.113757   
N69      N      0.990120000000     0.523160000000     0.102460000000    -0.167968   
N70      N      0.937970000000     0.562800000000     0.385970000000    -0.19068    
N71      N      0.006440000000     0.590230000000     0.505960000000    -0.238727   
N72      N      0.980420000000     0.659360000000     0.524090000000    -0.113096   
N73      N      0.971160000000     0.810270000000     0.534560000000    -0.115088   
N74      N      0.985500000000     0.882380000000     0.528170000000    -0.100727   
N75      N      0.979190000000     0.589740000000     0.564510000000    -0.191375   
N76      N      0.011290000000     0.414730000000     0.487900000000    -0.239172   
N77      N      0.032230000000     0.342750000000     0.477900000000    -0.108857   
N78      N      0.021920000000     0.192750000000     0.458950000000    -0.115005   
N79      N      0.995300000000     0.124100000000     0.453000000000    -0.0951577  
N80      N      0.064970000000     0.399110000000     0.520900000000    -0.194531   
N81      N      0.587960000000     0.987100000000     0.459890000000    -0.237698   
N82      N      0.659610000000     0.014030000000     0.460130000000    -0.113298   
N83      N      0.811430000000     0.017440000000     0.441170000000    -0.11522    
N84      N      0.882780000000     0.038490000000     0.443810000000    -0.100519   
N85      N      0.598840000000     0.021400000000     0.513340000000    -0.191923   
N86      N      0.115790000000     0.999720000000     0.518290000000    -0.112697   
N87      N      0.187300000000     0.986760000000     0.502090000000    -0.107861   
N88      N      0.340180000000     0.993650000000     0.501950000000    -0.116604   
N89      N      0.411510000000     0.980220000000     0.478560000000    -0.228915   
N90      N      0.122180000000     0.995330000000     0.455360000000    -0.189165   
N91      N      0.995870000000     0.605180000000     0.975960000000    -0.178325   
N92      N      0.987020000000     0.679300000000     0.970550000000    -0.106446   
N93      N      0.968520000000     0.829110000000     0.987900000000    -0.11354    
N94      N      0.979370000000     0.903010000000     0.994160000000    -0.167909   
N95      N      0.945650000000     0.620230000000     0.938770000000    -0.190309   
N96      N      0.056020000000     0.101750000000     0.018450000000    -0.178605   
N97      N      0.066290000000     0.175560000000     0.026440000000    -0.106463   
N98      N      0.041390000000     0.324810000000     0.019630000000    -0.112996   
N99      N      0.025630000000     0.397640000000     0.018520000000    -0.167532   
N100     N      0.101130000000     0.123930000000     0.978530000000    -0.190618   
N101     N      0.616310000000     0.032430000000     0.998330000000    -0.193716   
N102     N      0.690900000000     0.029690000000     0.992620000000    -0.106408   
N103     N      0.842970000000     0.036940000000     0.995200000000    -0.112168   
N104     N      0.916150000000     0.039170000000     0.001400000000    -0.166972   
N105     N      0.634070000000     0.995940000000     0.948570000000    -0.191717   
N106     N      0.117320000000     0.962060000000     0.011720000000    -0.178446   
N107     N      0.191070000000     0.946140000000     0.015600000000    -0.107025   
N108     N      0.343240000000     0.956410000000     0.013070000000    -0.113485   
N109     N      0.415050000000     0.979280000000     0.009090000000    -0.182809   
N110     N      0.133520000000     0.917330000000     0.969010000000    -0.190317   
N111     N      0.970580000000     0.022890000000     0.630830000000    -0.125873   
N112     N      0.008050000000     0.026020000000     0.694700000000    -0.107957   
N113     N      0.045010000000     0.014900000000     0.841750000000    -0.11541    
N114     N      0.083330000000     0.017620000000     0.905140000000    -0.1075     
N115     N      0.003190000000     0.077170000000     0.633440000000    -0.190498   
N116     N      0.003500000000     0.051130000000     0.413340000000    -0.116324   
N117     N      0.011190000000     0.035220000000     0.341560000000    -0.108418   
N118     N      0.032740000000     0.046270000000     0.191440000000    -0.114933   
N119     N      0.039520000000     0.028280000000     0.119950000000    -0.109661   
N120     N      0.959920000000     0.008040000000     0.396760000000    -0.191039   
O1       O      0.065130000000     0.979560000000     0.039050000000    -0.397435   
O2       O      0.964570000000     0.019960000000     0.033810000000    -0.400764   
O3       O      0.994570000000     0.950090000000     0.030120000000    -0.397843   
O4       O      0.035110000000     0.049570000000     0.042540000000    -0.393451   
O5       O      0.038600000000     0.054960000000     0.983590000000    -0.403573   
O6       O      0.001470000000     0.954980000000     0.971370000000    -0.403212   
O7       O      0.969300000000     0.024020000000     0.974720000000    -0.401551   
O8       O      0.070450000000     0.985820000000     0.980300000000    -0.399744   
O9       O      0.034780000000     0.041290000000     0.492620000000    -0.371148   
O10      O      0.952480000000     0.970840000000     0.490060000000    -0.37737    
O11      O      0.958190000000     0.046900000000     0.490070000000    -0.366131   
O12      O      0.029140000000     0.965270000000     0.492480000000    -0.374966   
O13      O      0.027140000000     0.965300000000     0.552240000000    -0.375489   
O14      O      0.956190000000     0.046970000000     0.549810000000    -0.373951   
O15      O      0.950460000000     0.970990000000     0.549810000000    -0.371834   
O16      O      0.032850000000     0.041280000000     0.552360000000    -0.374458   
O17      O      0.971760000000     0.504560000000     0.047320000000    -0.399169   
O18      O      0.990760000000     0.488950000000     0.942480000000    -0.40203    
O19      O      0.989040000000     0.444320000000     0.003710000000    -0.400208   
O20      O      0.973770000000     0.549270000000     0.985860000000    -0.396279   
O21      O      0.032710000000     0.558240000000     0.989580000000    -0.400723   
O22      O      0.046140000000     0.455070000000     0.017590000000    -0.399064   
O23      O      0.049470000000     0.493930000000     0.952170000000    -0.39775    
O24      O      0.029060000000     0.519430000000     0.055210000000    -0.398626   
O25      O      0.989730000000     0.477570000000     0.448270000000    -0.481647   
O26      O      0.025320000000     0.468850000000     0.543160000000    -0.486959   
O27      O      0.961570000000     0.469650000000     0.511960000000    -0.447995   
O28      O      0.057820000000     0.476810000000     0.477730000000    -0.460856   
O29      O      0.057560000000     0.534720000000     0.489190000000    -0.458144   
O30      O      0.958490000000     0.528650000000     0.514550000000    -0.453275   
O31      O      0.019970000000     0.526630000000     0.550240000000    -0.482391   
O32      O      0.995180000000     0.535540000000     0.452530000000    -0.493234   
O33      O      0.533590000000     0.963140000000     0.026120000000    -0.480079   
O34      O      0.504550000000     0.058860000000     0.039030000000    -0.493407   
O35      O      0.468660000000     0.992830000000     0.035190000000    -0.488137   
O36      O      0.566070000000     0.021840000000     0.031200000000    -0.491674   
O37      O      0.560430000000     0.029280000000     0.973320000000    -0.492781   
O38      O      0.461870000000     0.002890000000     0.977900000000    -0.481546   
O39      O      0.495870000000     0.065350000000     0.981350000000    -0.487445   
O40      O      0.522130000000     0.968350000000     0.968530000000    -0.481477   
O41      O      0.472730000000     0.932550000000     0.471100000000    -0.479286   
O42      O      0.469770000000     0.033480000000     0.479290000000    -0.485701   
O43      O      0.463710000000     0.986470000000     0.424030000000    -0.459878   
O44      O      0.474930000000     0.979310000000     0.524970000000    -0.456408   
O45      O      0.534020000000     0.981200000000     0.517960000000    -0.452322   
O46      O      0.522710000000     0.987420000000     0.417030000000    -0.459826   
O47      O      0.528180000000     0.036010000000     0.470510000000    -0.480965   
O48      O      0.531410000000     0.934810000000     0.463570000000    -0.479659   
O49      O      0.467390000000     0.524630000000     0.072380000000    -0.399268   
O50      O      0.488420000000     0.506490000000     0.968240000000    -0.399027   
O51      O      0.472250000000     0.463350000000     0.028120000000    -0.401034   
O52      O      0.483760000000     0.568900000000     0.011560000000    -0.400276   
O53      O      0.542280000000     0.564380000000     0.022890000000    -0.4015     
O54      O      0.529960000000     0.459470000000     0.043080000000    -0.397497   
O55      O      0.546540000000     0.500720000000     0.980580000000    -0.400521   
O56      O      0.526020000000     0.523930000000     0.084200000000    -0.396322   
O57      O      0.478270000000     0.434360000000     0.537540000000    -0.481369   
O58      O      0.480360000000     0.535440000000     0.528140000000    -0.482659   
O59      O      0.468530000000     0.483370000000     0.482240000000    -0.485266   
O60      O      0.489220000000     0.491900000000     0.580940000000    -0.482685   
O61      O      0.547180000000     0.487900000000     0.569480000000    -0.484952   
O62      O      0.525440000000     0.470930000000     0.471450000000    -0.478478   
O63      O      0.536800000000     0.531310000000     0.511540000000    -0.485997   
O64      O      0.536380000000     0.431350000000     0.527940000000    -0.488373   


