data_structure

_audit_creation_method RASPA-1.0
_audit_creation_date 2023-6-5
_audit_author_name 'Poobodin Mano'

_cell_length_a    60.9589
_cell_length_b    60.5374
_cell_length_c    37.3689
_cell_angle_alpha 89.9315
_cell_angle_beta  90.0682
_cell_angle_gamma 119.954
_cell_volume      119482

_symmetry_cell_setting          triclinic
_symmetry_space_group_name_Hall 'P 1'
_symmetry_space_group_name_H-M  'P 1'
_symmetry_Int_Tables_number     1

_symmetry_equiv_pos_as_xyz 'x,y,z'

loop_
_atom_site_label
_atom_site_type_symbol
_atom_site_fract_x
_atom_site_fract_y
_atom_site_fract_z
_atom_site_charge
C1       C      0.889490000000     0.689300000000     0.725120000000     0.399325   
C2       C      0.799910000000     0.653170000000     0.660830000000     0.398612   
C3       C      0.823890000000     0.666360000000     0.757460000000     0.399844   
C4       C      0.866030000000     0.676290000000     0.629020000000     0.398357   
C5       C      0.136700000000     0.816730000000     0.853600000000     0.398719   
C6       C      0.229040000000     0.875820000000     0.907420000000     0.400047   
C7       C      0.200560000000     0.859030000000     0.814630000000     0.398478   
C8       C      0.164580000000     0.832970000000     0.947070000000     0.401242   
C9       C      0.485080000000     0.015020000000     0.897900000000     0.400743   
C10      C      0.574160000000     0.051730000000     0.963740000000     0.399517   
C11      C      0.552310000000     0.040800000000     0.867290000000     0.401514   
C12      C      0.506790000000     0.026110000000     0.993760000000     0.40059    
C13      C      0.235640000000     0.376120000000     0.303330000000     0.399011   
C14      C      0.145650000000     0.349140000000     0.245820000000     0.399911   
C15      C      0.171810000000     0.361210000000     0.339260000000     0.401199   
C16      C      0.209450000000     0.363980000000     0.209720000000     0.399945   
C17      C      0.833140000000     0.186820000000     0.012670000000     0.399572   
C18      C      0.931070000000     0.248940000000     0.040100000000     0.4002     
C19      C      0.891070000000     0.226220000000     0.956800000000     0.400096   
C20      C      0.873510000000     0.209540000000     0.096690000000     0.399113   
C21      C      0.554320000000     0.531370000000     0.522640000000     0.397795   
C22      C      0.455100000000     0.473150000000     0.500110000000     0.400014   
C23      C      0.498370000000     0.496020000000     0.581240000000     0.398452   
C24      C      0.511580000000     0.508980000000     0.440320000000     0.399952   
C25      C      0.177510000000     0.373720000000     0.784400000000     0.399691   
C26      C      0.243540000000     0.342240000000     0.758930000000     0.399364   
C27      C      0.218440000000     0.357180000000     0.841990000000     0.399574   
C28      C      0.203270000000     0.358800000000     0.701850000000     0.399668   
C29      C      0.376090000000     0.215150000000     0.750650000000     0.399942   
C30      C      0.405970000000     0.153800000000     0.693790000000     0.400153   
C31      C      0.396510000000     0.170700000000     0.787920000000     0.400664   
C32      C      0.385580000000     0.198570000000     0.656730000000     0.399206   
C33      C      0.042180000000     0.476680000000     0.938540000000     0.399391   
C34      C      0.001920000000     0.531870000000     0.985090000000     0.399044   
C35      C      0.021190000000     0.519660000000     0.895110000000     0.399449   
C36      C      0.022700000000     0.488860000000     0.028250000000     0.4005     
C37      C      0.687900000000     0.895390000000     0.343590000000     0.39869    
C38      C      0.726080000000     0.835750000000     0.310320000000     0.398396   
C39      C      0.707700000000     0.856450000000     0.396620000000     0.39716    
C40      C      0.706430000000     0.875150000000     0.257330000000     0.397849   
C41      C      0.840840000000     0.694840000000     0.208730000000     0.398309   
C42      C      0.893050000000     0.648610000000     0.175430000000     0.39969    
C43      C      0.877080000000     0.670740000000     0.260830000000     0.398189   
C44      C      0.856720000000     0.672310000000     0.122190000000     0.396867   
C45      C      0.552010000000     0.017880000000     0.422840000000     0.398552   
C46      C      0.487960000000     0.052570000000     0.442420000000     0.400659   
C47      C      0.512450000000     0.032540000000     0.362390000000     0.398824   
C48      C      0.527530000000     0.037710000000     0.503330000000     0.398675   
C49      C      0.375860000000     0.169660000000     0.220580000000     0.400286   
C50      C      0.410370000000     0.269600000000     0.212930000000     0.400321   
C51      C      0.390240000000     0.221790000000     0.287740000000     0.398615   
C52      C      0.396110000000     0.217790000000     0.145770000000     0.399186   
C53      C      0.522620000000     0.499590000000     0.038460000000     0.399684   
C54      C      0.580680000000     0.595040000000     0.992740000000     0.398431   
C55      C      0.564110000000     0.562600000000     0.083640000000     0.401128   
C56      C      0.539530000000     0.532430000000     0.948470000000     0.398843   
C57      C      0.255150000000     0.933060000000     0.370100000000     0.400334   
C58      C      0.188760000000     0.833490000000     0.376260000000     0.398011   
C59      C      0.218820000000     0.882240000000     0.301590000000     0.400504   
C60      C      0.224800000000     0.884120000000     0.443810000000     0.399581   
C61      C      0.044040000000     0.572750000000     0.437470000000     0.398939   
C62      C      0.002000000000     0.477580000000     0.487030000000     0.399026   
C63      C      0.019150000000     0.508840000000     0.395380000000     0.398603   
C64      C      0.027260000000     0.542260000000     0.529260000000     0.400172   
C65      C      0.863260000000     0.214490000000     0.509500000000     0.399086   
C66      C      0.803370000000     0.116480000000     0.542720000000     0.399832   
C67      C      0.824260000000     0.154650000000     0.456520000000     0.399941   
C68      C      0.842150000000     0.176090000000     0.595450000000     0.398708   
C69      C      0.695150000000     0.842850000000     0.863290000000     0.399251   
C70      C      0.722200000000     0.930990000000     0.797480000000     0.399327   
C71      C      0.712140000000     0.908020000000     0.893960000000     0.400595   
C72      C      0.705090000000     0.865170000000     0.766690000000     0.399224   
C73      C      0.714840000000     0.973240000000     0.734810000000    -0.0299675  
C74      C      0.792340000000     0.062410000000     0.594040000000    -0.0299991  
C75      C      0.761170000000     0.080670000000     0.560600000000    -0.00727778 
C76      C      0.798560000000     0.074180000000     0.556600000000    -0.00690609 
C77      C      0.764440000000     0.048130000000     0.667220000000    -0.056644   
C78      C      0.740200000000     0.994920000000     0.663690000000    -0.0563515  
C79      C      0.757950000000     0.035930000000     0.633640000000     0.0610801  
C80      C      0.755440000000     0.068260000000     0.597770000000    -0.0302018  
C81      C      0.746250000000     0.007100000000     0.697290000000     0.0608063  
C82      C      0.758690000000     0.982700000000     0.734810000000    -0.0301221  
C83      C      0.758410000000     0.033750000000     0.698680000000    -0.054201   
C84      C      0.756000000000     0.971870000000     0.772580000000    -0.0070986  
C85      C      0.710540000000     0.961750000000     0.772430000000    -0.00748309 
C86      C      0.745840000000     0.009270000000     0.632240000000    -0.054594   
C87      C      0.921370000000     0.277640000000     0.505080000000    -0.030236   
C88      C      0.952100000000     0.411180000000     0.498070000000    -0.0300907  
C89      C      0.006610000000     0.441470000000     0.509210000000    -0.0072005  
C90      C      0.964050000000     0.439010000000     0.509730000000    -0.00705313 
C91      C      0.945880000000     0.356590000000     0.535740000000    -0.0543618  
C92      C      0.935360000000     0.335870000000     0.466810000000    -0.0542672  
C93      C      0.954450000000     0.372880000000     0.506040000000     0.0609998  
C94      C      0.993130000000     0.413410000000     0.497750000000    -0.0300978  
C95      C      0.926310000000     0.319610000000     0.496500000000     0.0610159  
C96      C      0.884480000000     0.283080000000     0.503830000000    -0.0298973  
C97      C      0.931940000000     0.330160000000     0.531140000000    -0.0565632  
C98      C      0.867340000000     0.255650000000     0.491390000000    -0.00708108 
C99      C      0.905700000000     0.249840000000     0.492860000000    -0.0070602  
C100     C      0.949340000000     0.362290000000     0.471400000000    -0.0565141  
C101     C      0.162690000000     0.762830000000     0.380490000000    -0.0297979  
C102     C      0.053400000000     0.636970000000     0.418240000000    -0.0302504  
C103     C      0.081550000000     0.609900000000     0.411570000000    -0.00702915 
C104     C      0.039060000000     0.607990000000     0.412950000000    -0.00706469 
C105     C      0.099030000000     0.690260000000     0.432040000000    -0.0565322  
C106     C      0.112560000000     0.714840000000     0.365590000000    -0.0565513  
C107     C      0.091360000000     0.675730000000     0.400370000000     0.0610771  
C108     C      0.094060000000     0.638650000000     0.417110000000    -0.029985   
C109     C      0.121040000000     0.729280000000     0.397270000000     0.0611357  
C110     C      0.127690000000     0.770880000000     0.379800000000    -0.0299855  
C111     C      0.113800000000     0.716800000000     0.430370000000    -0.0540713  
C112     C      0.144940000000     0.799380000000     0.387160000000    -0.00693699 
C113     C      0.182020000000     0.790690000000     0.388020000000    -0.00676141 
C114     C      0.097900000000     0.688270000000     0.367250000000    -0.0542721  
C115     C      0.637280000000     0.657340000000     0.967260000000    -0.0299877  
C116     C      0.653390000000     0.777690000000     0.898250000000    -0.0298974  
C117     C      0.707400000000     0.814300000000     0.893640000000    -0.0070522  
C118     C      0.662350000000     0.806140000000     0.896840000000    -0.00701326 
C119     C      0.659970000000     0.738870000000     0.959030000000    -0.0543035  
C120     C      0.643030000000     0.702630000000     0.904210000000    -0.0542069  
C121     C      0.663130000000     0.746910000000     0.923300000000     0.0610673  
C122     C      0.696410000000     0.785360000000     0.895360000000    -0.0300412  
C123     C      0.638910000000     0.694550000000     0.939940000000     0.0610436  
C124     C      0.599880000000     0.661590000000     0.965580000000    -0.0298679  
C125     C      0.648060000000     0.712920000000     0.967410000000    -0.0565371  
C126     C      0.582140000000     0.632810000000     0.965980000000    -0.00684602 
C127     C      0.621510000000     0.628150000000     0.967990000000    -0.00704068 
C128     C      0.655110000000     0.728580000000     0.895830000000    -0.0565744  
C129     C      0.276400000000     0.997440000000     0.341000000000    -0.0301297  
C130     C      0.374840000000     0.113000000000     0.254510000000    -0.0303448  
C131     C      0.339580000000     0.125470000000     0.219770000000    -0.00680669 
C132     C      0.384070000000     0.133460000000     0.225250000000    -0.00707217 
C133     C      0.339970000000     0.075760000000     0.310440000000    -0.0564023  
C134     C      0.315510000000     0.026680000000     0.281240000000    -0.0565294  
C135     C      0.338780000000     0.072620000000     0.273000000000     0.0610633  
C136     C      0.331710000000     0.105620000000     0.249530000000    -0.0300166  
C137     C      0.316820000000     0.029820000000     0.318680000000     0.0612266  
C138     C      0.311600000000     0.989010000000     0.337900000000    -0.0302327  
C139     C      0.329230000000     0.054500000000     0.332960000000    -0.0543869  
C140     C      0.299680000000     0.968590000000     0.367090000000    -0.00711365 
C141     C      0.263730000000     0.977630000000     0.370620000000    -0.00685256 
C142     C      0.326590000000     0.047940000000     0.258720000000    -0.0542673  
C143     C      0.411060000000     0.325420000000     0.177340000000    -0.0302998  
C144     C      0.506580000000     0.439230000000     0.083210000000    -0.0299229  
C145     C      0.480010000000     0.464010000000     0.053900000000    -0.00731985 
C146     C      0.517830000000     0.457360000000     0.051410000000    -0.00706494 
C147     C      0.455320000000     0.381040000000     0.095170000000    -0.054252   
C148     C      0.458650000000     0.390210000000     0.168850000000    -0.0544888  
C149     C      0.467250000000     0.406180000000     0.107700000000     0.0611122  
C150     C      0.470080000000     0.445300000000     0.085360000000    -0.0299559  
C151     C      0.446830000000     0.365060000000     0.156310000000     0.0611956  
C152     C      0.454270000000     0.332900000000     0.182190000000    -0.0300393  
C153     C      0.445330000000     0.360610000000     0.119160000000    -0.0565119  
C154     C      0.446650000000     0.313850000000     0.213000000000    -0.00688284 
C155     C      0.402190000000     0.305810000000     0.207710000000    -0.00708389 
C156     C      0.468960000000     0.410660000000     0.144850000000    -0.0564624  
C157     C      0.728980000000     0.861990000000     0.492620000000    -0.0300329  
C158     C      0.680310000000     0.844660000000     0.676510000000    -0.0301636  
C159     C      0.725790000000     0.855880000000     0.716470000000    -0.00717557 
C160     C      0.678610000000     0.838250000000     0.716410000000    -0.00739914 
C161     C      0.702680000000     0.867400000000     0.604860000000    -0.0563759  
C162     C      0.704450000000     0.830030000000     0.563010000000    -0.0565646  
C163     C      0.702460000000     0.846430000000     0.621590000000     0.0607648  
C164     C      0.726060000000     0.862100000000     0.676690000000    -0.0300368  
C165     C      0.703490000000     0.850400000000     0.546300000000     0.0610483  
C166     C      0.684830000000     0.830050000000     0.489270000000    -0.0298747  
C167     C      0.702910000000     0.869140000000     0.567560000000    -0.0542489  
C168     C      0.682470000000     0.836450000000     0.450350000000    -0.00699972 
C169     C      0.729550000000     0.871070000000     0.454240000000    -0.0064445  
C170     C      0.703650000000     0.827990000000     0.600340000000    -0.0542208  
C171     C      0.727870000000     0.905730000000     0.166930000000    -0.0297891  
C172     C      0.733460000000     0.930040000000     0.987710000000    -0.0298096  
C173     C      0.691230000000     0.916090000000     0.945270000000    -0.00659773 
C174     C      0.737830000000     0.929890000000     0.947330000000    -0.00598587 
C175     C      0.705660000000     0.915410000000     0.060810000000    -0.0565186  
C176     C      0.712240000000     0.874980000000     0.083150000000    -0.0541536  
C177     C      0.709280000000     0.900470000000     0.035210000000     0.0614689  
C178     C      0.687080000000     0.903230000000     0.982300000000    -0.0304144  
C179     C      0.708720000000     0.889790000000     0.108750000000     0.0609373  
C180     C      0.684000000000     0.872770000000     0.162910000000    -0.0299793  
C181     C      0.705020000000     0.909890000000     0.097310000000    -0.0563176  
C182     C      0.684640000000     0.861460000000     0.199310000000    -0.0067377  
C183     C      0.731180000000     0.896700000000     0.203720000000    -0.00710036 
C184     C      0.712460000000     0.880230000000     0.046700000000    -0.054331   
C185     C      0.730820000000     0.777550000000     0.290650000000    -0.0299731  
C186     C      0.826440000000     0.746940000000     0.227810000000    -0.0298642  
C187     C      0.801340000000     0.691430000000     0.231450000000    -0.00690108 
C188     C      0.842640000000     0.734230000000     0.229100000000    -0.00689249 
C189     C      0.785410000000     0.750280000000     0.288530000000    -0.0541763  
C190     C      0.769030000000     0.768320000000     0.231460000000    -0.0542603  
C191     C      0.789110000000     0.744850000000     0.253360000000     0.0610195  
C192     C      0.787370000000     0.706570000000     0.230120000000    -0.0299921  
C193     C      0.765950000000     0.774320000000     0.266610000000     0.0611405  
C194     C      0.772910000000     0.814360000000     0.290980000000    -0.0299312  
C195     C      0.773840000000     0.764790000000     0.295240000000    -0.0566184  
C196     C      0.762860000000     0.832970000000     0.289560000000    -0.00706765 
C197     C      0.718270000000     0.794000000000     0.288990000000    -0.00681622 
C198     C      0.780420000000     0.753630000000     0.224760000000    -0.0565113  
C199     C      0.640090000000     0.915230000000     0.361630000000    -0.0298575  
C200     C      0.611860000000     0.015350000000     0.410350000000    -0.0300014  
C201     C      0.557090000000     0.981370000000     0.407080000000    -0.0068759  
C202     C      0.594740000000     0.026980000000     0.405920000000    -0.00677426 
C203     C      0.622980000000     0.975430000000     0.355800000000    -0.0541524  
C204     C      0.640110000000     0.960980000000     0.415990000000    -0.054139   
C205     C      0.616910000000     0.980120000000     0.390040000000     0.0611445  
C206     C      0.576300000000     0.972390000000     0.411430000000    -0.0297822  
C207     C      0.645290000000     0.955340000000     0.381760000000     0.0611357  
C208     C      0.681650000000     0.952950000000     0.360190000000    -0.0300892  
C209     C      0.637140000000     0.963240000000     0.351560000000    -0.0565097  
C210     C      0.694920000000     0.937220000000     0.363780000000    -0.00679059 
C211     C      0.651050000000     0.897560000000     0.365460000000    -0.0069797  
C212     C      0.626140000000     0.973370000000     0.420230000000    -0.0564925  
C213     C      0.050310000000     0.554210000000     0.621550000000    -0.0302384  
C214     C      0.044770000000     0.548610000000     0.806100000000    -0.0301508  
C215     C      0.996270000000     0.517620000000     0.841770000000    -0.0071862  
C216     C      0.042940000000     0.550750000000     0.846630000000    -0.00665781 
C217     C      0.023720000000     0.527110000000     0.728680000000    -0.0561684  
C218     C      0.027540000000     0.571290000000     0.698860000000    -0.0546478  
C219     C      0.022630000000     0.545250000000     0.751060000000     0.061074   
C220     C      0.000060000000     0.517320000000     0.801360000000    -0.0300804  
C221     C      0.028260000000     0.553140000000     0.676450000000     0.0611953  
C222     C      0.005810000000     0.542520000000     0.620160000000    -0.0303926  
C223     C      0.025890000000     0.530730000000     0.691620000000    -0.0562625  
C224     C      0.007990000000     0.551390000000     0.581310000000    -0.0066721  
C225     C      0.053930000000     0.563060000000     0.582550000000    -0.00712175 
C226     C      0.024660000000     0.567340000000     0.735800000000    -0.0544292  
C227     C      0.997740000000     0.468830000000     0.117480000000    -0.0301573  
C228     C      0.037730000000     0.494800000000     0.305860000000    -0.0297756  
C229     C      0.995100000000     0.496270000000     0.339160000000    -0.00632876 
C230     C      0.041940000000     0.508020000000     0.342030000000    -0.00684817 
C231     C      0.016240000000     0.468010000000     0.236870000000    -0.0564999  
C232     C      0.018020000000     0.502930000000     0.186220000000    -0.0564905  
C233     C      0.017360000000     0.490710000000     0.248290000000     0.0611791  
C234     C      0.993770000000     0.483320000000     0.303440000000    -0.0298744  
C235     C      0.018790000000     0.481150000000     0.174820000000     0.0610806  
C236     C      0.043400000000     0.498200000000     0.120520000000    -0.0301329  
C237     C      0.017320000000     0.463520000000     0.200400000000    -0.0543465  
C238     C      0.047000000000     0.491050000000     0.082680000000    -0.00683466 
C239     C      0.000090000000     0.460620000000     0.079570000000    -0.00692721 
C240     C      0.017650000000     0.507750000000     0.222660000000    -0.0541201  
C241     C      0.942900000000     0.641560000000     0.131890000000    -0.030038   
C242     C      0.956100000000     0.545120000000     0.030130000000    -0.0301118  
C243     C      0.007720000000     0.573830000000     0.002980000000    -0.00746012 
C244     C      0.963880000000     0.535260000000     0.997660000000    -0.00699842 
C245     C      0.949510000000     0.596950000000     0.046190000000    -0.0542196  
C246     C      0.953700000000     0.590310000000     0.119450000000    -0.0543465  
C247     C      0.961470000000     0.583560000000     0.057660000000     0.0610913  
C248     C      0.998180000000     0.582320000000     0.035060000000    -0.0297968  
C249     C      0.941900000000     0.603860000000     0.107990000000     0.0610874  
C250     C      0.903980000000     0.600400000000     0.133860000000    -0.0300176  
C251     C      0.939660000000     0.606930000000     0.071040000000    -0.0564737  
C252     C      0.894190000000     0.608690000000     0.165870000000    -0.00711915 
C253     C      0.934380000000     0.651370000000     0.163640000000    -0.00728411 
C254     C      0.963300000000     0.580090000000     0.094590000000    -0.0564566  
C255     C      0.376250000000     0.159300000000     0.878100000000    -0.0302787  
C256     C      0.420520000000     0.211630000000     0.058210000000    -0.0300874  
C257     C      0.375550000000     0.210780000000     0.086540000000    -0.00682281 
C258     C      0.422650000000     0.227100000000     0.091670000000    -0.00720389 
C259     C      0.399180000000     0.211900000000     0.969940000000    -0.0540733  
C260     C      0.399210000000     0.165960000000     0.962450000000    -0.054446   
C261     C      0.399390000000     0.198640000000     0.000550000000     0.0609276  
C262     C      0.375270000000     0.195700000000     0.053520000000    -0.0302333  
C263     C      0.399740000000     0.179610000000     0.931840000000     0.0611123  
C264     C      0.422170000000     0.188280000000     0.875250000000    -0.0302141  
C265     C      0.399060000000     0.202400000000     0.935850000000    -0.0565253  
C266     C      0.423750000000     0.175910000000     0.840420000000    -0.0066419  
C267     C      0.376990000000     0.146180000000     0.843450000000    -0.00690458 
C268     C      0.398730000000     0.175180000000     0.996560000000    -0.0562948  
C269     C      0.407940000000     0.225880000000     0.384170000000    -0.0297125  
C270     C      0.404140000000     0.224290000000     0.565470000000    -0.029927   
C271     C      0.357600000000     0.194870000000     0.606200000000    -0.00751032 
C272     C      0.404240000000     0.228280000000     0.605850000000    -0.0069403  
C273     C      0.380730000000     0.199620000000     0.491030000000    -0.0562011  
C274     C      0.382520000000     0.242080000000     0.458380000000    -0.0544732  
C275     C      0.379460000000     0.218190000000     0.512230000000     0.0609211  
C276     C      0.359350000000     0.192680000000     0.565590000000    -0.0300093  
C277     C      0.383860000000     0.223730000000     0.437210000000     0.0610186  
C278     C      0.363010000000     0.210760000000     0.379650000000    -0.0300017  
C279     C      0.382400000000     0.202110000000     0.453770000000    -0.0563288  
C280     C      0.365400000000     0.219800000000     0.340860000000    -0.00679771 
C281     C      0.412670000000     0.235310000000     0.345450000000    -0.00745372 
C282     C      0.380270000000     0.239300000000     0.495520000000    -0.0544601  
C283     C      0.475130000000     0.094930000000     0.489040000000    -0.0301034  
C284     C      0.399340000000     0.103370000000     0.634700000000    -0.0302762  
C285     C      0.440470000000     0.147610000000     0.669950000000    -0.00705314 
C286     C      0.395800000000     0.110850000000     0.672480000000    -0.00703952 
C287     C      0.443690000000     0.088940000000     0.595570000000    -0.054194   
C288     C      0.428240000000     0.099140000000     0.530130000000    -0.0545306  
C289     C      0.430430000000     0.102300000000     0.595120000000     0.0611086  
C290     C      0.442600000000     0.139310000000     0.632090000000    -0.029986   
C291     C      0.441460000000     0.085730000000     0.530600000000     0.0612087  
C292     C      0.439340000000     0.051210000000     0.494600000000    -0.030455   
C293     C      0.449390000000     0.080890000000     0.563660000000    -0.0565223  
C294     C      0.444840000000     0.044630000000     0.457310000000    -0.00689315 
C295     C      0.480880000000     0.089140000000     0.451500000000    -0.00671765 
C296     C      0.422920000000     0.107580000000     0.562020000000    -0.0565384  
C297     C      0.154120000000     0.415030000000     0.818630000000    -0.0300395  
C298     C      0.048240000000     0.425590000000     0.892340000000    -0.0301059  
C299     C      0.080490000000     0.473340000000     0.929750000000    -0.00694767 
C300     C      0.036710000000     0.434800000000     0.921050000000    -0.00724643 
C301     C      0.098690000000     0.412160000000     0.894140000000    -0.0542813  
C302     C      0.099550000000     0.416870000000     0.819650000000    -0.0542876  
C303     C      0.086220000000     0.423710000000     0.877970000000     0.061169   
C304     C      0.089890000000     0.462730000000     0.900250000000    -0.0298845  
C305     C      0.112240000000     0.405550000000     0.835870000000     0.0610261  
C306     C      0.119550000000     0.371080000000     0.818360000000    -0.0301656  
C307     C      0.111740000000     0.403270000000     0.873410000000    -0.0565292  
C308     C      0.132940000000     0.363520000000     0.790390000000    -0.00719927 
C309     C      0.168720000000     0.409260000000     0.790430000000    -0.00701312 
C310     C      0.086770000000     0.426060000000     0.840420000000    -0.0565857  
C311     C      0.268510000000     0.298080000000     0.757100000000    -0.0298906  
C312     C      0.374440000000     0.274010000000     0.759330000000    -0.030461   
C313     C      0.342000000000     0.220500000000     0.777890000000    -0.00684963 
C314     C      0.386040000000     0.258000000000     0.772200000000    -0.00705104 
C315     C      0.333230000000     0.284330000000     0.731370000000    -0.0565128  
C316     C      0.316600000000     0.301940000000     0.788580000000    -0.0565845  
C317     C      0.338090000000     0.279930000000     0.766760000000     0.0610739  
C318     C      0.331700000000     0.237370000000     0.764430000000    -0.0300099  
C319     C      0.311080000000     0.305650000000     0.753210000000     0.0611165  
C320     C      0.303840000000     0.341540000000     0.759560000000    -0.0301733  
C321     C      0.319880000000     0.297120000000     0.724780000000    -0.0542414  
C322     C      0.287360000000     0.352240000000     0.745510000000    -0.00714268 
C323     C      0.250750000000     0.306880000000     0.742530000000    -0.00704432 
C324     C      0.330030000000     0.289210000000     0.795170000000    -0.0543713  
C325     C      0.502970000000     0.476220000000     0.676060000000    -0.0297586  
C326     C      0.538680000000     0.506480000000     0.856680000000    -0.0298634  
C327     C      0.516240000000     0.532420000000     0.895020000000    -0.0067487  
C328     C      0.550460000000     0.519280000000     0.892340000000    -0.00628025 
C329     C      0.501890000000     0.492160000000     0.789560000000    -0.0564125  
C330     C      0.536040000000     0.526620000000     0.739700000000    -0.0542752  
C331     C      0.523350000000     0.514690000000     0.801400000000     0.0614486  
C332     C      0.507060000000     0.519260000000     0.858830000000    -0.0297111  
C333     C      0.514400000000     0.504650000000     0.727690000000     0.061499   
C334     C      0.491030000000     0.508490000000     0.678210000000    -0.0296406  
C335     C      0.497180000000     0.487430000000     0.752910000000    -0.0563385  
C336     C      0.493540000000     0.513120000000     0.637960000000    -0.0058029  
C337     C      0.504990000000     0.477110000000     0.635150000000    -0.00649439 
C338     C      0.540440000000     0.531630000000     0.776200000000    -0.0544952  
C339     C      0.536950000000     0.510370000000     0.349890000000    -0.0304292  
C340     C      0.546250000000     0.567180000000     0.172750000000    -0.0301204  
C341     C      0.588010000000     0.564890000000     0.138630000000    -0.00703117 
C342     C      0.558290000000     0.582190000000     0.138510000000    -0.00656853 
C343     C      0.568660000000     0.564600000000     0.258660000000    -0.0543837  
C344     C      0.522880000000     0.518710000000     0.265040000000    -0.0543792  
C345     C      0.555250000000     0.551970000000     0.227760000000     0.0610843  
C346     C      0.575140000000     0.550000000000     0.172770000000    -0.0301058  
C347     C      0.535750000000     0.531890000000     0.295940000000     0.0611094  
C348     C      0.522050000000     0.540810000000     0.352420000000    -0.0298369  
C349     C      0.559210000000     0.554550000000     0.292530000000    -0.0565529  
C350     C      0.505660000000     0.527800000000     0.385150000000    -0.0071137  
C351     C      0.520980000000     0.495800000000     0.382440000000    -0.00658978 
C352     C      0.532630000000     0.528440000000     0.231180000000    -0.0565502  
C353     C      0.876340000000     0.235840000000     0.866230000000    -0.0304203  
C354     C      0.873900000000     0.188140000000     0.684360000000    -0.029933   
C355     C      0.829980000000     0.187620000000     0.652310000000    -0.00663487 
C356     C      0.862040000000     0.172270000000     0.650710000000    -0.00724876 
C357     C      0.849080000000     0.186260000000     0.770500000000    -0.0541702  
C358     C      0.894040000000     0.232420000000     0.780760000000    -0.0543799  
C359     C      0.863130000000     0.200200000000     0.740740000000     0.0609812  
C360     C      0.843690000000     0.203050000000     0.685650000000    -0.0301309  
C361     C      0.880520000000     0.217950000000     0.810520000000     0.0610795  
C362     C      0.894080000000     0.207470000000     0.865850000000    -0.0300337  
C363     C      0.857480000000     0.195120000000     0.805140000000    -0.0565854  
C364     C      0.908240000000     0.218880000000     0.900800000000    -0.0069357  
C365     C      0.890140000000     0.248210000000     0.901250000000    -0.00677255 
C366     C      0.885330000000     0.223840000000     0.746090000000    -0.0565034  
C367     C      0.863680000000     0.177590000000     0.184940000000    -0.029826   
C368     C      0.813970000000     0.169080000000     0.366590000000    -0.0302989  
C369     C      0.832520000000     0.138150000000     0.400400000000    -0.00683329 
C370     C      0.801680000000     0.154230000000     0.401010000000    -0.00694341 
C371     C      0.819090000000     0.153870000000     0.280650000000    -0.0543468  
C372     C      0.864050000000     0.200280000000     0.272090000000    -0.054196   
C373     C      0.833070000000     0.167050000000     0.310910000000     0.0610122  
C374     C      0.843800000000     0.153190000000     0.365920000000    -0.0301398  
C375     C      0.850620000000     0.186590000000     0.241800000000     0.0609588  
C376     C      0.847320000000     0.206750000000     0.187520000000    -0.0302223  
C377     C      0.827570000000     0.163630000000     0.246330000000    -0.0564861  
C378     C      0.862450000000     0.221320000000     0.154380000000    -0.00669744 
C379     C      0.879360000000     0.190510000000     0.151600000000    -0.00724601 
C380     C      0.855270000000     0.190820000000     0.306410000000    -0.0564968  
C381     C      0.203420000000     0.383300000000     0.610310000000    -0.0300341  
C382     C      0.158610000000     0.337800000000     0.428480000000    -0.0300918  
C383     C      0.167170000000     0.383820000000     0.391500000000    -0.00675301 
C384     C      0.146840000000     0.336250000000     0.391820000000    -0.0065395  
C385     C      0.193710000000     0.361310000000     0.491270000000    -0.0566141  
C386     C      0.164010000000     0.361950000000     0.547820000000    -0.0566839  
C387     C      0.171100000000     0.361450000000     0.483960000000     0.0612604  
C388     C      0.178700000000     0.384460000000     0.428190000000    -0.0303687  
C389     C      0.185960000000     0.360550000000     0.555060000000     0.0613811  
C390     C      0.173870000000     0.337860000000     0.611700000000    -0.0298173  
C391     C      0.200880000000     0.360640000000     0.526560000000    -0.0543182  
C392     C      0.185030000000     0.334430000000     0.646470000000    -0.00706698 
C393     C      0.216400000000     0.382240000000     0.644790000000    -0.00657107 
C394     C      0.156570000000     0.362140000000     0.512480000000    -0.0544414  
C395     C      0.207470000000     0.335290000000     0.936700000000    -0.0298686  
C396     C      0.213080000000     0.340320000000     0.120880000000    -0.0300566  
C397     C      0.234940000000     0.389160000000     0.157830000000    -0.00726542 
C398     C      0.217980000000     0.341600000000     0.161160000000    -0.00676195 
C399     C      0.210820000000     0.361520000000     0.045500000000    -0.0563051  
C400     C      0.249790000000     0.358520000000     0.010580000000    -0.0546426  
C401     C      0.230900000000     0.362560000000     0.065540000000     0.0611503  
C402     C      0.229760000000     0.386130000000     0.117560000000    -0.0299535  
C403     C      0.230030000000     0.357780000000     0.990490000000     0.0612477  
C404     C      0.237680000000     0.380620000000     0.934760000000    -0.0299689  
C405     C      0.210620000000     0.359610000000     0.008220000000    -0.0564451  
C406     C      0.243570000000     0.379460000000     0.895310000000    -0.00665585 
C407     C      0.211490000000     0.331990000000     0.897100000000    -0.00733947 
C408     C      0.250250000000     0.360950000000     0.047760000000    -0.0545501  
C409     C      0.990810000000     0.265330000000     0.081480000000    -0.0300354  
C410     C      0.097980000000     0.354490000000     0.191280000000    -0.0301171  
C411     C      0.103000000000     0.314840000000     0.228390000000    -0.0068919  
C412     C      0.114410000000     0.361150000000     0.224980000000    -0.00737581 
C413     C      0.065920000000     0.324160000000     0.128240000000    -0.0565167  
C414     C      0.014770000000     0.300470000000     0.147280000000    -0.0565326  
C415     C      0.059050000000     0.321050000000     0.164650000000     0.0611339  
C416     C      0.087460000000     0.310120000000     0.194290000000    -0.0300587  
C417     C      0.021630000000     0.303750000000     0.110860000000     0.061176   
C418     C      0.984260000000     0.301960000000     0.084280000000    -0.030212   
C419     C      0.047320000000     0.315750000000     0.101670000000    -0.0543491  
C420     C      0.967010000000     0.292590000000     0.051320000000    -0.00723969 
C421     C      0.974170000000     0.255190000000     0.048160000000    -0.00677402 
C422     C      0.033380000000     0.309270000000     0.173830000000    -0.0542595  
C423     C      0.399250000000     0.421420000000     0.458510000000    -0.0304355  
C424     C      0.294600000000     0.415270000000     0.353960000000    -0.0300642  
C425     C      0.266720000000     0.363960000000     0.324300000000    -0.00746423 
C426     C      0.278350000000     0.410380000000     0.320540000000    -0.00698947 
C427     C      0.317650000000     0.401850000000     0.418800000000    -0.0564891  
C428     C      0.368220000000     0.424260000000     0.397140000000    -0.0564361  
C429     C      0.323570000000     0.404440000000     0.382060000000     0.061099   
C430     C      0.283820000000     0.370890000000     0.357310000000    -0.0300083  
C431     C      0.362310000000     0.421450000000     0.433900000000     0.0611179  
C432     C      0.395230000000     0.459560000000     0.461740000000    -0.0300701  
C433     C      0.336900000000     0.410140000000     0.444400000000    -0.0543522  
C434     C      0.412820000000     0.469330000000     0.494190000000    -0.00688413 
C435     C      0.417370000000     0.430350000000     0.490560000000    -0.00717695 
C436     C      0.348960000000     0.415630000000     0.371560000000    -0.054186   
C437     C      0.553170000000     0.019950000000     0.777580000000    -0.030558   
C438     C      0.524700000000     0.017840000000     0.598780000000    -0.0301011  
C439     C      0.546340000000     0.064630000000     0.556490000000    -0.00707168 
C440     C      0.513250000000     0.017310000000     0.562180000000    -0.00651402 
C441     C      0.561300000000     0.041530000000     0.664170000000    -0.056197   
C442     C      0.528580000000     0.044300000000     0.714060000000    -0.0544322  
C443     C      0.540310000000     0.043350000000     0.652260000000     0.0609623  
C444     C      0.555680000000     0.062660000000     0.593730000000    -0.0299969  
C445     C      0.549560000000     0.042800000000     0.726020000000     0.0618253  
C446     C      0.576370000000     0.066940000000     0.775910000000    -0.029678   
C447     C      0.566110000000     0.041670000000     0.700800000000    -0.056723   
C448     C      0.574280000000     0.069470000000     0.816380000000    -0.00585789 
C449     C      0.564560000000     0.023640000000     0.815510000000    -0.00626754 
C450     C      0.524030000000     0.044640000000     0.677500000000    -0.0542504  
C451     C      0.515030000000     0.050930000000     0.266030000000    -0.0301647  
C452     C      0.490850000000     0.999970000000     0.082940000000    -0.0304422  
C453     C      0.493980000000     0.043390000000     0.044660000000    -0.00676944 
C454     C      0.482310000000     0.997320000000     0.043890000000    -0.00683949 
C455     C      0.475070000000     0.021100000000     0.162690000000    -0.0543501  
C456     C      0.519930000000     0.025460000000     0.189330000000    -0.0541041  
C457     C      0.492970000000     0.021480000000     0.138840000000     0.0611419  
C458     C      0.502700000000     0.045010000000     0.083450000000    -0.030253   
C459     C      0.501750000000     0.024410000000     0.213210000000     0.0612165  
C460     C      0.485860000000     0.005730000000     0.271930000000    -0.0297466  
C461     C      0.479490000000     0.022880000000     0.199570000000    -0.0565407  
C462     C      0.494880000000     0.004890000000     0.309800000000    -0.00717349 
C463     C      0.526170000000     0.052740000000     0.303330000000    -0.0063313  
C464     C      0.515820000000     0.024360000000     0.152450000000    -0.0565122  
C465     C      0.639080000000     0.099500000000     0.985380000000    -0.0300816  
C466     C      0.770250000000     0.127740000000     0.006090000000    -0.0301274  
C467     C      0.792220000000     0.182460000000     0.994970000000    -0.00688256 
C468     C      0.798370000000     0.143900000000     0.996450000000    -0.00704321 
C469     C      0.714530000000     0.115150000000     0.961810000000    -0.054256   
C470     C      0.690200000000     0.102310000000     0.028240000000    -0.0544539  
C471     C      0.729000000000     0.122850000000     0.993210000000     0.0610356  
C472     C      0.764580000000     0.164640000000     0.004960000000    -0.0300193  
C473     C      0.675710000000     0.095240000000     0.996820000000     0.0610607  
C474     C      0.635450000000     0.057520000000     0.983420000000    -0.0302649  
C475     C      0.688110000000     0.101440000000     0.963460000000    -0.0566428  
C476     C      0.607020000000     0.044410000000     0.991400000000    -0.007018   
C477     C      0.610890000000     0.087800000000     0.993550000000    -0.00698075 
C478     C      0.716640000000     0.115990000000     0.026580000000    -0.056698   
C479     C      0.226150000000     0.857570000000     0.723170000000    -0.0297163  
C480     C      0.243160000000     0.877190000000     0.537910000000    -0.0297502  
C481     C      0.206420000000     0.886740000000     0.500710000000    -0.00608986 
C482     C      0.239660000000     0.872260000000     0.497580000000    -0.00683311 
C483     C      0.197700000000     0.850830000000     0.608500000000    -0.0543875  
C484     C      0.235410000000     0.888740000000     0.651150000000    -0.0564406  
C485     C      0.218700000000     0.871290000000     0.592260000000     0.0614884  
C486     C      0.212710000000     0.891490000000     0.540440000000    -0.0298471  
C487     C      0.213890000000     0.868420000000     0.667240000000     0.0615568  
C488     C      0.213370000000     0.889260000000     0.722770000000    -0.0296133  
C489     C      0.195280000000     0.849450000000     0.645640000000    -0.054401   
C490     C      0.202570000000     0.882800000000     0.760660000000    -0.00660089 
C491     C      0.215650000000     0.848020000000     0.760610000000    -0.00610592 
C492     C      0.237570000000     0.890420000000     0.613860000000    -0.0564243  
C493     C      0.189840000000     0.877860000000     0.213960000000    -0.0300589  
C494     C      0.174430000000     0.820830000000     0.036040000000    -0.0303809  
C495     C      0.144110000000     0.839290000000     0.000490000000    -0.00643852 
C496     C      0.159330000000     0.807880000000     0.002140000000    -0.00677219 
C497     C      0.161570000000     0.829750000000     0.121370000000    -0.0544272  
C498     C      0.208680000000     0.874340000000     0.125980000000    -0.0542913  
C499     C      0.174030000000     0.842490000000     0.090000000000     0.0612666  
C500     C      0.159190000000     0.851520000000     0.034600000000    -0.0303979  
C501     C      0.195830000000     0.862090000000     0.157360000000     0.0612511  
C502     C      0.216900000000     0.858950000000     0.210470000000    -0.0303248  
C503     C      0.172440000000     0.839250000000     0.154840000000    -0.0565661  
C504     C      0.232360000000     0.874230000000     0.242950000000    -0.00662251 
C505     C      0.204110000000     0.893660000000     0.246620000000    -0.00688038 
C506     C      0.198080000000     0.864540000000     0.092520000000    -0.0565373  
C507     C      0.423430000000     0.007910000000     0.891270000000    -0.0305221  
C508     C      0.295760000000     0.897760000000     0.912170000000    -0.0301953  
C509     C      0.262730000000     0.918350000000     0.928300000000    -0.00705587 
C510     C      0.269790000000     0.880890000000     0.929130000000    -0.00686978 
C511     C      0.338070000000     0.944790000000     0.874720000000    -0.0564831  
C512     C      0.376160000000     0.964820000000     0.926730000000    -0.056513   
C513     C      0.331550000000     0.940470000000     0.911230000000     0.0611258  
C514     C      0.289010000000     0.934340000000     0.911540000000    -0.0302219  
C515     C      0.382710000000     0.968810000000     0.890200000000     0.0612076  
C516     C      0.420910000000     0.966270000000     0.887440000000    -0.0300741  
C517     C      0.363460000000     0.958880000000     0.864420000000    -0.0543543  
C518     C      0.447250000000     0.978430000000     0.870710000000    -0.00649374 
C519     C      0.450090000000     0.021050000000     0.875000000000    -0.00701396 
C520     C      0.350770000000     0.950800000000     0.937030000000    -0.0543245  
C521     C      0.803270000000     0.644030000000     0.851550000000    -0.029985   
C522     C      0.824990000000     0.651020000000     0.032340000000    -0.0299044  
C523     C      0.870540000000     0.693380000000     0.063630000000    -0.00678914 
C524     C      0.833600000000     0.647470000000     0.069320000000    -0.00723455 
C525     C      0.856400000000     0.665690000000     0.948270000000    -0.0540999  
C526     C      0.816490000000     0.672390000000     0.924990000000    -0.0564581  
C527     C      0.841440000000     0.669140000000     0.973570000000     0.0607215  
C528     C      0.859450000000     0.694320000000     0.027230000000    -0.0299581  
C529     C      0.831620000000     0.668920000000     0.899700000000     0.0613699  
C530     C      0.828430000000     0.690930000000     0.846490000000    -0.0306705  
C531     C      0.851590000000     0.665660000000     0.911690000000    -0.0542885  
C532     C      0.815300000000     0.686300000000     0.809640000000    -0.00678577 
C533     C      0.804080000000     0.640010000000     0.811170000000    -0.00582846 
C534     C      0.821640000000     0.672970000000     0.961620000000    -0.0561341  
C535     C      0.885440000000     0.700810000000     0.537350000000    -0.0301299  
C536     C      0.898680000000     0.695330000000     0.352250000000    -0.0302513  
C537     C      0.869430000000     0.646120000000     0.316840000000    -0.00746722 
C538     C      0.904240000000     0.692420000000     0.313120000000    -0.00694553 
C539     C      0.869760000000     0.676060000000     0.426600000000    -0.0561307  
C540     C      0.909130000000     0.677740000000     0.467180000000    -0.0543826  
C541     C      0.889110000000     0.673790000000     0.409420000000     0.0608892  
C542     C      0.865680000000     0.650910000000     0.355970000000    -0.029945   
C543     C      0.889660000000     0.679440000000     0.484500000000     0.0608337  
C544     C      0.872900000000     0.655860000000     0.539410000000    -0.0301059  
C545     C      0.869710000000     0.678240000000     0.463880000000    -0.056021   
C546     C      0.877880000000     0.657070000000     0.579700000000    -0.00707054 
C547     C      0.890350000000     0.703670000000     0.577780000000    -0.00758233 
C548     C      0.908810000000     0.674850000000     0.430060000000    -0.0544046  
C549     C      0.618350000000     0.588070000000     0.543850000000    -0.0299768  
C550     C      0.736240000000     0.606650000000     0.624830000000    -0.0299497  
C551     C      0.769450000000     0.661740000000     0.628940000000    -0.00689355 
C552     C      0.764740000000     0.617510000000     0.628870000000    -0.00709333 
C553     C      0.685500000000     0.604340000000     0.620580000000    -0.0564967  
C554     C      0.673350000000     0.598120000000     0.547670000000    -0.0566591  
C555     C      0.705000000000     0.613470000000     0.594920000000     0.0608979  
C556     C      0.740630000000     0.648680000000     0.624890000000    -0.0301756  
C557     C      0.653860000000     0.588130000000     0.573350000000     0.0610715  
C558     C      0.621920000000     0.550190000000     0.543380000000    -0.0297594  
C559     C      0.660170000000     0.591700000000     0.609760000000    -0.054094   
C560     C      0.593310000000     0.532440000000     0.541390000000    -0.00669186 
C561     C      0.589390000000     0.572870000000     0.541820000000    -0.00668927 
C562     C      0.698690000000     0.610590000000     0.558490000000    -0.054238   
C563     C      0.071150000000     0.796320000000     0.823310000000    -0.0298825  
C564     C      0.949490000000     0.694040000000     0.757070000000    -0.0301491  
C565     C      0.925180000000     0.725080000000     0.756270000000    -0.00697726 
C566     C      0.920540000000     0.680970000000     0.755920000000    -0.00697508 
C567     C      0.004620000000     0.738240000000     0.755530000000    -0.0566736  
C568     C      0.020730000000     0.747070000000     0.826860000000    -0.0565724  
C569     C      0.986590000000     0.729850000000     0.783260000000     0.0612537  
C570     C      0.953810000000     0.736110000000     0.757280000000    -0.0298941  
C571     C      0.038750000000     0.756330000000     0.799110000000     0.0611558  
C572     C      0.076200000000     0.759130000000     0.826630000000    -0.0300689  
C573     C      0.030470000000     0.751430000000     0.763520000000    -0.0541159  
C574     C      0.105140000000     0.775510000000     0.827330000000    -0.00705042 
C575     C      0.099700000000     0.814520000000     0.823640000000    -0.00695988 
C576     C      0.994880000000     0.734010000000     0.818870000000    -0.0541401  
Cu1      Cu     0.848170000000     0.693100000000     0.690750000000     0.838196   
Cu2      Cu     0.841190000000     0.649370000000     0.695370000000     0.840491   
Cu3      Cu     0.178800000000     0.864240000000     0.881860000000     0.842863   
Cu4      Cu     0.186710000000     0.828040000000     0.880020000000     0.840996   
Cu5      Cu     0.532610000000     0.055130000000     0.929360000000     0.84245    
Cu6      Cu     0.526760000000     0.011760000000     0.931900000000     0.840747   
Cu7      Cu     0.196830000000     0.385330000000     0.271710000000     0.840518   
Cu8      Cu     0.184470000000     0.339940000000     0.277330000000     0.843183   
Cu9      Cu     0.878240000000     0.235970000000     0.028580000000     0.839319   
Cu10     Cu     0.885920000000     0.199680000000     0.024760000000     0.842412   
Cu11     Cu     0.502250000000     0.521290000000     0.512600000000     0.84354    
Cu12     Cu     0.507310000000     0.483350000000     0.508920000000     0.838993   
Cu13     Cu     0.193320000000     0.335660000000     0.773320000000     0.842762   
Cu14     Cu     0.227910000000     0.380430000000     0.770640000000     0.840663   
Cu15     Cu     0.368880000000     0.166940000000     0.721700000000     0.840412   
Cu16     Cu     0.413240000000     0.202060000000     0.722790000000     0.841239   
Cu17     Cu     0.000500000000     0.485820000000     0.957450000000     0.838524   
Cu18     Cu     0.043450000000     0.522650000000     0.965890000000     0.843994   
Cu19     Cu     0.685430000000     0.847200000000     0.324610000000     0.841137   
Cu20     Cu     0.728710000000     0.884110000000     0.329240000000     0.838854   
Cu21     Cu     0.847450000000     0.650690000000     0.194730000000     0.837584   
Cu22     Cu     0.886170000000     0.692650000000     0.188470000000     0.84004    
Cu23     Cu     0.502360000000     0.013100000000     0.435990000000     0.843474   
Cu24     Cu     0.537620000000     0.057330000000     0.429700000000     0.839701   
Cu25     Cu     0.415060000000     0.223840000000     0.219480000000     0.840959   
Cu26     Cu     0.371180000000     0.215420000000     0.214050000000     0.840888   
Cu27     Cu     0.569950000000     0.543800000000     0.014000000000     0.839652   
Cu28     Cu     0.533600000000     0.551040000000     0.018170000000     0.843739   
Cu29     Cu     0.239420000000     0.878590000000     0.371040000000     0.840572   
Cu30     Cu     0.204430000000     0.887960000000     0.374380000000     0.843814   
Cu31     Cu     0.044210000000     0.527370000000     0.464780000000     0.842119   
Cu32     Cu     0.001860000000     0.523080000000     0.460140000000     0.839641   
Cu33     Cu     0.851520000000     0.161970000000     0.524300000000     0.841506   
Cu34     Cu     0.815010000000     0.168970000000     0.527620000000     0.838843   
Cu35     Cu     0.731130000000     0.892600000000     0.832100000000     0.839097   
Cu36     Cu     0.686240000000     0.881090000000     0.828240000000     0.840694   
H1       H      0.741190000000     0.999640000000     0.606620000000     0.0438029  
H2       H      0.702390000000     0.981640000000     0.731150000000     0.034067   
H3       H      0.778690000000     0.998050000000     0.731000000000     0.0340558  
H4       H      0.749850000000     0.065680000000     0.540540000000     0.0361814  
H5       H      0.712990000000     0.976600000000     0.792070000000     0.0365567  
H6       H      0.798650000000     0.048060000000     0.595790000000     0.0340782  
H7       H      0.734590000000     0.058100000000     0.602050000000     0.0342536  
H8       H      0.819360000000     0.083770000000     0.552410000000     0.0409067  
H9       H      0.768220000000     0.963130000000     0.774820000000     0.0406389  
H10      H      0.731390000000     0.974400000000     0.661730000000     0.0401614  
H11      H      0.690680000000     0.945850000000     0.774460000000     0.0407438  
H12      H      0.774440000000     0.068700000000     0.669150000000     0.0409903  
H13      H      0.709240000000     0.957670000000     0.714870000000     0.0374466  
H14      H      0.755010000000     0.095110000000     0.559690000000     0.0406992  
H15      H      0.763050000000     0.987870000000     0.792050000000     0.0369139  
H16      H      0.803060000000     0.077560000000     0.614270000000     0.0393029  
H17      H      0.764470000000     0.083600000000     0.618210000000     0.0384336  
H18      H      0.763610000000     0.043420000000     0.724270000000     0.0439401  
H19      H      0.754370000000     0.967420000000     0.714820000000     0.038096   
H20      H      0.789430000000     0.058550000000     0.536630000000     0.0361347  
H21      H      0.955660000000     0.374440000000     0.447990000000     0.0406309  
H22      H      0.941100000000     0.285460000000     0.495200000000     0.0341824  
H23      H      0.876750000000     0.295000000000     0.493150000000     0.0340529  
H24      H      0.009450000000     0.442420000000     0.538690000000     0.0367671  
H25      H      0.908320000000     0.249000000000     0.463550000000     0.0370275  
H26      H      0.932480000000     0.400600000000     0.508880000000     0.0341722  
H27      H      0.003940000000     0.404500000000     0.508450000000     0.034145   
H28      H      0.953120000000     0.447310000000     0.497590000000     0.040878   
H29      H      0.848340000000     0.248410000000     0.503610000000     0.0406996  
H30      H      0.931120000000     0.328030000000     0.440010000000     0.0439545  
H31      H      0.913180000000     0.238560000000     0.506320000000     0.0402775  
H32      H      0.949600000000     0.364460000000     0.562520000000     0.0438432  
H33      H      0.921870000000     0.278280000000     0.534870000000     0.0373931  
H34      H      0.025590000000     0.451480000000     0.496400000000     0.0404724  
H35      H      0.865050000000     0.255690000000     0.461870000000     0.0364856  
H36      H      0.951000000000     0.410220000000     0.468310000000     0.0383067  
H37      H      0.993160000000     0.412400000000     0.468000000000     0.037864   
H38      H      0.925120000000     0.318030000000     0.554540000000     0.0403993  
H39      H      0.884130000000     0.283730000000     0.533610000000     0.0376499  
H40      H      0.962300000000     0.439560000000     0.539290000000     0.0362609  
H41      H      0.092160000000     0.677340000000     0.342690000000     0.044119   
H42      H      0.169980000000     0.750760000000     0.392050000000     0.0341761  
H43      H      0.108610000000     0.764910000000     0.390980000000     0.0342207  
H44      H      0.082200000000     0.606110000000     0.382590000000     0.0369092  
H45      H      0.187660000000     0.792610000000     0.416670000000     0.038367   
H46      H      0.042070000000     0.644850000000     0.406090000000     0.0344077  
H47      H      0.113070000000     0.647860000000     0.404250000000     0.0342576  
H48      H      0.021200000000     0.599710000000     0.428640000000     0.0403283  
H49      H      0.138530000000     0.810270000000     0.370350000000     0.0393408  
H50      H      0.117900000000     0.724040000000     0.339690000000     0.0402681  
H51      H      0.199250000000     0.795940000000     0.371830000000     0.0399566  
H52      H      0.094260000000     0.681070000000     0.457960000000     0.0407176  
H53      H      0.160790000000     0.759620000000     0.351020000000     0.0363068  
H54      H      0.092890000000     0.602950000000     0.426030000000     0.0408274  
H55      H      0.142640000000     0.803230000000     0.415600000000     0.0389524  
H56      H      0.055300000000     0.641270000000     0.447420000000     0.037487   
H57      H      0.096730000000     0.642850000000     0.446310000000     0.037805   
H58      H      0.120200000000     0.727680000000     0.454940000000     0.0445052  
H59      H      0.125670000000     0.767550000000     0.350370000000     0.0361712  
H60      H      0.033890000000     0.603820000000     0.384220000000     0.0377946  
H61      H      0.657330000000     0.734270000000     0.868010000000     0.040562   
H62      H      0.655680000000     0.662960000000     0.953990000000     0.0339629  
H63      H      0.590240000000     0.670500000000     0.951190000000     0.0342567  
H64      H      0.714160000000     0.822390000000     0.920770000000     0.0383613  
H65      H      0.621620000000     0.620780000000     0.940790000000     0.0384838  
H66      H      0.635310000000     0.768020000000     0.913540000000     0.0342813  
H67      H      0.710500000000     0.781470000000     0.908620000000     0.0340941  
H68      H      0.648330000000     0.808810000000     0.881150000000     0.0408976  
H69      H      0.565490000000     0.628620000000     0.982880000000     0.0405693  
H70      H      0.636080000000     0.688710000000     0.882820000000     0.0442704  
H71      H      0.630750000000     0.620820000000     0.986430000000     0.0396291  
H72      H      0.666040000000     0.752750000000     0.980420000000     0.0442001  
H73      H      0.641280000000     0.664720000000     0.995200000000     0.0366853  
H74      H      0.724080000000     0.822550000000     0.875500000000     0.0400957  
H75      H      0.575060000000     0.626390000000     0.938330000000     0.0376811  
H76      H      0.649540000000     0.769920000000     0.870510000000     0.0376095  
H77      H      0.693270000000     0.777590000000     0.867650000000     0.0371367  
H78      H      0.645140000000     0.707170000000     0.995230000000     0.0404482  
H79      H      0.603490000000     0.668840000000     0.993590000000     0.0370198  
H80      H      0.662510000000     0.812950000000     0.924510000000     0.0375546  
H81      H      0.325100000000     0.045230000000     0.229990000000     0.0439028  
H82      H      0.271370000000     0.012610000000     0.344850000000     0.03405    
H83      H      0.332560000000     0.998010000000     0.339670000000     0.03453    
H84      H      0.335740000000     0.115530000000     0.193550000000     0.0362419  
H85      H      0.269490000000     0.987520000000     0.396900000000     0.0363627  
H86      H      0.386500000000     0.103570000000     0.253510000000     0.0343948  
H87      H      0.311570000000     0.090780000000     0.245120000000     0.0340484  
H88      H      0.403920000000     0.148310000000     0.231200000000     0.0406687  
H89      H      0.304470000000     0.953430000000     0.361780000000     0.0408771  
H90      H      0.305480000000     0.007880000000     0.269400000000     0.0407872  
H91      H      0.242870000000     0.968990000000     0.368140000000     0.0408398  
H92      H      0.348670000000     0.094580000000     0.322240000000     0.0405014  
H93      H      0.268920000000     0.988270000000     0.314540000000     0.0388779  
H94      H      0.327640000000     0.134540000000     0.221450000000     0.0408429  
H95      H      0.308220000000     0.977490000000     0.393240000000     0.0364654  
H96      H      0.377790000000     0.122470000000     0.281000000000     0.0380153  
H97      H      0.333130000000     0.114900000000     0.275830000000     0.0388162  
H98      H      0.329970000000     0.057220000000     0.361670000000     0.0438113  
H99      H      0.305430000000     0.979590000000     0.311330000000     0.0381605  
H100     H      0.384030000000     0.124460000000     0.199310000000     0.036282   
H101     H      0.478580000000     0.429890000000     0.155310000000     0.0401215  
H102     H      0.399440000000     0.334910000000     0.177780000000     0.0345675  
H103     H      0.474440000000     0.347850000000     0.185970000000     0.0340978  
H104     H      0.470310000000     0.453560000000     0.029080000000     0.0371615  
H105     H      0.402730000000     0.315600000000     0.233150000000     0.0364242  
H106     H      0.512740000000     0.424760000000     0.081510000000     0.0339468  
H107     H      0.449020000000     0.435310000000     0.085080000000     0.0342461  
H108     H      0.538800000000     0.467680000000     0.053970000000     0.0404368  
H109     H      0.458590000000     0.304760000000     0.212100000000     0.0408601  
H110     H      0.460340000000     0.393940000000     0.197340000000     0.0438983  
H111     H      0.382220000000     0.290890000000     0.202700000000     0.0408707  
H112     H      0.454240000000     0.377320000000     0.066700000000     0.044135   
H113     H      0.407730000000     0.315190000000     0.151410000000     0.0383705  
H114     H      0.474810000000     0.478970000000     0.058360000000     0.0405629  
H115     H      0.450640000000     0.324480000000     0.238660000000     0.0362853  
H116     H      0.514120000000     0.450090000000     0.108580000000     0.0374579  
H117     H      0.476820000000     0.456250000000     0.110780000000     0.0367759  
H118     H      0.436860000000     0.341420000000     0.108700000000     0.0408939  
H119     H      0.452630000000     0.322910000000     0.156460000000     0.0389735  
H120     H      0.512790000000     0.445890000000     0.026410000000     0.0372896  
H121     H      0.704050000000     0.812040000000     0.612830000000     0.0437467  
H122     H      0.743650000000     0.878320000000     0.508360000000     0.0338977  
H123     H      0.666020000000     0.822370000000     0.502370000000     0.0342355  
H124     H      0.724970000000     0.837180000000     0.718920000000     0.036933   
H125     H      0.730310000000     0.889810000000     0.455110000000     0.0398639  
H126     H      0.662290000000     0.830560000000     0.663400000000     0.0343658  
H127     H      0.741900000000     0.861010000000     0.663650000000     0.0339048  
H128     H      0.663230000000     0.840490000000     0.728610000000     0.040733   
H129     H      0.671540000000     0.818320000000     0.435240000000     0.0395233  
H130     H      0.705660000000     0.815670000000     0.547310000000     0.0402048  
H131     H      0.747300000000     0.874290000000     0.441170000000     0.038509   
H132     H      0.702570000000     0.882360000000     0.620530000000     0.0402413  
H133     H      0.733900000000     0.846570000000     0.492900000000     0.0364403  
H134     H      0.743810000000     0.870630000000     0.728760000000     0.0404791  
H135     H      0.671160000000     0.846270000000     0.449610000000     0.0385613  
H136     H      0.682400000000     0.863920000000     0.673650000000     0.037785   
H137     H      0.729630000000     0.881950000000     0.673730000000     0.0380572  
H138     H      0.702720000000     0.885200000000     0.555100000000     0.0442624  
H139     H      0.690060000000     0.814870000000     0.489750000000     0.0353697  
H140     H      0.673310000000     0.817880000000     0.719130000000     0.0363147  
H141     H      0.715400000000     0.868680000000     0.027310000000     0.0460182  
H142     H      0.746510000000     0.914940000000     0.153020000000     0.0341016  
H143     H      0.669540000000     0.857190000000     0.145920000000     0.0341569  
H144     H      0.673630000000     0.905710000000     0.929170000000     0.040948   
H145     H      0.742120000000     0.886620000000     0.200490000000     0.0381892  
H146     H      0.750430000000     0.932150000000     0.002050000000     0.0343005  
H147     H      0.673240000000     0.882560000000     0.979310000000     0.0401775  
H148     H      0.749920000000     0.949760000000     0.937650000000     0.0325268  
H149     H      0.666640000000     0.856000000000     0.213610000000     0.0392073  
H150     H      0.714980000000     0.859390000000     0.091540000000     0.044859   
H151     H      0.742790000000     0.913760000000     0.220620000000     0.0401087  
H152     H      0.703440000000     0.931330000000     0.052560000000     0.0396768  
H153     H      0.722020000000     0.920320000000     0.170490000000     0.0358824  
H154     H      0.694710000000     0.935780000000     0.949350000000     0.0316549  
H155     H      0.685420000000     0.843700000000     0.194850000000     0.03906    
H156     H      0.731070000000     0.946570000000     0.994890000000     0.0345574  
H157     H      0.678470000000     0.911410000000     0.000380000000     0.0313949  
H158     H      0.701980000000     0.921440000000     0.116520000000     0.0398093  
H159     H      0.678160000000     0.887380000000     0.166440000000     0.0365594  
H160     H      0.748320000000     0.919530000000     0.942350000000     0.0442176  
H161     H      0.782940000000     0.749590000000     0.197350000000     0.0403872  
H162     H      0.718070000000     0.759010000000     0.277340000000     0.03413    
H163     H      0.791830000000     0.823540000000     0.277890000000     0.0342443  
H164     H      0.800920000000     0.684890000000     0.259400000000     0.0384706  
H165     H      0.711710000000     0.793750000000     0.261130000000     0.0387239  
H166     H      0.837410000000     0.766200000000     0.240150000000     0.0341553  
H167     H      0.768960000000     0.695410000000     0.244290000000     0.0340456  
H168     H      0.859000000000     0.744790000000     0.210770000000     0.0403565  
H169     H      0.774760000000     0.849360000000     0.307390000000     0.0401545  
H170     H      0.762930000000     0.775400000000     0.209190000000     0.0443528  
H171     H      0.701210000000     0.785190000000     0.306430000000     0.0397463  
H172     H      0.791940000000     0.743590000000     0.310780000000     0.0440153  
H173     H      0.733100000000     0.773600000000     0.319120000000     0.0366548  
H174     H      0.790920000000     0.674120000000     0.214520000000     0.0394895  
H175     H      0.765180000000     0.840560000000     0.261860000000     0.038048   
H176     H      0.822630000000     0.749450000000     0.199360000000     0.036658   
H177     H      0.783300000000     0.708940000000     0.201740000000     0.0365668  
H178     H      0.771480000000     0.768980000000     0.322650000000     0.0402974  
H179     H      0.775380000000     0.810590000000     0.319450000000     0.0365161  
H180     H      0.850380000000     0.736200000000     0.256620000000     0.0378631  
H181     H      0.621810000000     0.976900000000     0.446970000000     0.0403606  
H182     H      0.621190000000     0.905990000000     0.374810000000     0.034221   
H183     H      0.693950000000     0.972010000000     0.372430000000     0.0343919  
H184     H      0.550140000000     0.977930000000     0.378970000000     0.0379924  
H185     H      0.649610000000     0.891680000000     0.393960000000     0.0375423  
H186     H      0.630430000000     0.028340000000     0.397550000000     0.0342301  
H187     H      0.568100000000     0.953000000000     0.399530000000     0.0341659  
H188     H      0.602380000000     0.044450000000     0.422710000000     0.0394187  
H189     H      0.712090000000     0.945930000000     0.346550000000     0.0396407  
H190     H      0.646270000000     0.955030000000     0.439450000000     0.0442794  
H191     H      0.639120000000     0.880060000000     0.349530000000     0.0405917  
H192     H      0.616050000000     0.980570000000     0.332350000000     0.0442968  
H193     H      0.637360000000     0.917640000000     0.332700000000     0.0370222  
H194     H      0.540570000000     0.969430000000     0.424570000000     0.0401399  
H195     H      0.701330000000     0.938360000000     0.391940000000     0.0385336  
H196     H      0.615260000000     0.013960000000     0.439350000000     0.0364714  
H197     H      0.579530000000     0.970920000000     0.440470000000     0.0364567  
H198     H      0.640940000000     0.959170000000     0.324820000000     0.0403936  
H199     H      0.679240000000     0.955810000000     0.331300000000     0.0367457  
H200     H      0.595590000000     0.033000000000     0.377580000000     0.038866   
H201     H      0.024140000000     0.581600000000     0.752680000000     0.044414   
H202     H      0.068530000000     0.565690000000     0.636020000000     0.0342461  
H203     H      0.991030000000     0.545200000000     0.633630000000     0.0343311  
H204     H      0.987870000000     0.529880000000     0.847380000000     0.0370984  
H205     H      0.062050000000     0.584090000000     0.582200000000     0.0363692  
H206     H      0.060180000000     0.567240000000     0.795950000000     0.0341038  
H207     H      0.982020000000     0.512670000000     0.787700000000     0.034251   
H208     H      0.060820000000     0.553680000000     0.858950000000     0.039958   
H209     H      0.989650000000     0.539000000000     0.567620000000     0.040454   
H210     H      0.029060000000     0.588480000000     0.687580000000     0.044376   
H211     H      0.067930000000     0.558900000000     0.569790000000     0.040794   
H212     H      0.022740000000     0.510110000000     0.739680000000     0.040042   
H213     H      0.045390000000     0.533870000000     0.622070000000     0.0377565  
H214     H      0.982360000000     0.497950000000     0.850570000000     0.0407478  
H215     H      0.011360000000     0.571220000000     0.581150000000     0.0371495  
H216     H      0.049890000000     0.533750000000     0.799870000000     0.0378544  
H217     H      0.004520000000     0.502010000000     0.795180000000     0.0368286  
H218     H      0.025810000000     0.516080000000     0.674990000000     0.0402795  
H219     H      0.999680000000     0.521830000000     0.620810000000     0.0386874  
H220     H      0.041310000000     0.567860000000     0.852580000000     0.0380508  
H221     H      0.017900000000     0.524990000000     0.231060000000     0.0442451  
H222     H      0.981510000000     0.452410000000     0.130990000000     0.0339437  
H223     H      0.060810000000     0.503400000000     0.136290000000     0.0345413  
H224     H      0.995000000000     0.514300000000     0.333760000000     0.0398835  
H225     H      0.001490000000     0.443020000000     0.081400000000     0.0369945  
H226     H      0.056010000000     0.503950000000     0.291030000000     0.0342702  
H227     H      0.978780000000     0.483630000000     0.286750000000     0.0337863  
H228     H      0.053310000000     0.502410000000     0.359150000000     0.0398326  
H229     H      0.062980000000     0.507940000000     0.069700000000     0.0406044  
H230     H      0.018270000000     0.516460000000     0.167060000000     0.0405199  
H231     H      0.982630000000     0.455980000000     0.064370000000     0.0402308  
H232     H      0.015180000000     0.454100000000     0.256050000000     0.0402156  
H233     H      0.993660000000     0.484810000000     0.115920000000     0.0383017  
H234     H      0.977730000000     0.483750000000     0.354850000000     0.0382504  
H235     H      0.052320000000     0.475990000000     0.084650000000     0.0359601  
H236     H      0.031960000000     0.474420000000     0.310380000000     0.0353979  
H237     H      0.988310000000     0.463020000000     0.308010000000     0.0363832  
H238     H      0.017320000000     0.446400000000     0.192000000000     0.0438548  
H239     H      0.041000000000     0.515230000000     0.118810000000     0.0385198  
H240     H      0.053500000000     0.528980000000     0.337870000000     0.0384263  
H241     H      0.972070000000     0.569450000000     0.104170000000     0.0402773  
H242     H      0.963940000000     0.651080000000     0.132250000000     0.0344056  
H243     H      0.896160000000     0.579420000000     0.135590000000     0.0341057  
H244     H      0.007090000000     0.584270000000     0.978850000000     0.0371274  
H245     H      0.943030000000     0.648860000000     0.188410000000     0.0367984  
H246     H      0.935550000000     0.538620000000     0.027800000000     0.0341016  
H247     H      0.008920000000     0.603520000000     0.036310000000     0.03425    
H248     H      0.953550000000     0.514080000000     0.998690000000     0.0404761  
H249     H      0.873240000000     0.599380000000     0.163840000000     0.0406442  
H250     H      0.955290000000     0.587540000000     0.147770000000     0.0439957  
H251     H      0.941750000000     0.672130000000     0.160010000000     0.0409635  
H252     H      0.947690000000     0.599510000000     0.017870000000     0.0442258  
H253     H      0.937030000000     0.646960000000     0.106650000000     0.0380275  
H254     H      0.027840000000     0.579440000000     0.007780000000     0.0407622  
H255     H      0.898760000000     0.601760000000     0.190790000000     0.0369552  
H256     H      0.959050000000     0.536740000000     0.054970000000     0.0375887  
H257     H      0.002090000000     0.574800000000     0.060000000000     0.0371603  
H258     H      0.930260000000     0.616950000000     0.061430000000     0.0408152  
H259     H      0.896960000000     0.604570000000     0.108650000000     0.0381977  
H260     H      0.957820000000     0.541030000000     0.972970000000     0.0372734  
H261     H      0.398120000000     0.164130000000     0.019710000000     0.0405324  
H262     H      0.360670000000     0.144980000000     0.895190000000     0.0341413  
H263     H      0.440190000000     0.195100000000     0.890280000000     0.0345975  
H264     H      0.376460000000     0.228740000000     0.077560000000     0.0373486  
H265     H      0.378970000000     0.129410000000     0.850560000000     0.0363482  
H266     H      0.438830000000     0.221560000000     0.043540000000     0.0342953  
H267     H      0.359880000000     0.193670000000     0.035370000000     0.0340282  
H268     H      0.437060000000     0.226960000000     0.109780000000     0.0407358  
H269     H      0.439450000000     0.190360000000     0.823720000000     0.0406627  
H270     H      0.399200000000     0.148150000000     0.959800000000     0.0439369  
H271     H      0.358760000000     0.139170000000     0.829000000000     0.04059    
H272     H      0.399130000000     0.229690000000     0.972580000000     0.0439664  
H273     H      0.372010000000     0.174750000000     0.871560000000     0.0392241  
H274     H      0.357460000000     0.199370000000     0.101270000000     0.0401128  
H275     H      0.428340000000     0.160780000000     0.847220000000     0.0357506  
H276     H      0.417170000000     0.192550000000     0.066650000000     0.0375108  
H277     H      0.371020000000     0.176260000000     0.061740000000     0.0380552  
H278     H      0.398680000000     0.212970000000     0.912720000000     0.0411092  
H279     H      0.420150000000     0.205070000000     0.868390000000     0.0394478  
H280     H      0.429660000000     0.247210000000     0.083560000000     0.0362815  
H281     H      0.379590000000     0.253880000000     0.511460000000     0.0443042  
H282     H      0.425400000000     0.237950000000     0.399990000000     0.0340219  
H283     H      0.346750000000     0.211370000000     0.392140000000     0.0340637  
H284     H      0.349580000000     0.207470000000     0.611720000000     0.0367329  
H285     H      0.420910000000     0.256360000000     0.345490000000     0.0376263  
H286     H      0.418930000000     0.242460000000     0.553240000000     0.0339759  
H287     H      0.340660000000     0.187410000000     0.553540000000     0.033988   
H288     H      0.422840000000     0.232190000000     0.616640000000     0.040324   
H289     H      0.348450000000     0.205570000000     0.325800000000     0.0395344  
H290     H      0.383410000000     0.258700000000     0.446000000000     0.0445515  
H291     H      0.427060000000     0.231290000000     0.333690000000     0.0405275  
H292     H      0.380650000000     0.183350000000     0.503190000000     0.0396969  
H293     H      0.404200000000     0.205900000000     0.384790000000     0.0361402  
H294     H      0.344160000000     0.175680000000     0.617100000000     0.0404567  
H295     H      0.365340000000     0.238140000000     0.340440000000     0.0386726  
H296     H      0.409140000000     0.209270000000     0.559810000000     0.0376545  
H297     H      0.363550000000     0.177130000000     0.559870000000     0.0365613  
H298     H      0.382980000000     0.187420000000     0.438020000000     0.0397203  
H299     H      0.358920000000     0.190650000000     0.380260000000     0.0369569  
H300     H      0.402450000000     0.245420000000     0.610860000000     0.0372602  
H301     H      0.413260000000     0.118460000000     0.560760000000     0.0403098  
H302     H      0.480540000000     0.115410000000     0.490110000000     0.0340984  
H303     H      0.418590000000     0.039860000000     0.499540000000     0.0345886  
H304     H      0.448310000000     0.139240000000     0.689080000000     0.0368296  
H305     H      0.470550000000     0.094370000000     0.431760000000     0.0356725  
H306     H      0.387570000000     0.082300000000     0.631960000000     0.0343378  
H307     H      0.462720000000     0.144800000000     0.627270000000     0.0341062  
H308     H      0.375700000000     0.105740000000     0.675920000000     0.0408113  
H309     H      0.439200000000     0.024120000000     0.456450000000     0.0406844  
H310     H      0.422460000000     0.103450000000     0.504890000000     0.0435856  
H311     H      0.501460000000     0.101180000000     0.446080000000     0.0407613  
H312     H      0.450020000000     0.085170000000     0.620750000000     0.0441982  
H313     H      0.486860000000     0.091640000000     0.508890000000     0.0398384  
H314     H      0.452260000000     0.168700000000     0.671700000000     0.0408385  
H315     H      0.433040000000     0.047800000000     0.437530000000     0.0357771  
H316     H      0.392450000000     0.112370000000     0.615070000000     0.0379507  
H317     H      0.437200000000     0.149560000000     0.612330000000     0.0385141  
H318     H      0.460260000000     0.071220000000     0.564830000000     0.0413556  
H319     H      0.449110000000     0.045590000000     0.514740000000     0.0391704  
H320     H      0.399810000000     0.099450000000     0.692050000000     0.0365436  
H321     H      0.077810000000     0.435430000000     0.827260000000     0.0403595  
H322     H      0.159040000000     0.435290000000     0.815530000000     0.0339908  
H323     H      0.098740000000     0.358680000000     0.814920000000     0.0343445  
H324     H      0.085350000000     0.468400000000     0.956130000000     0.0375313  
H325     H      0.164950000000     0.414780000000     0.763720000000     0.0370268  
H326     H      0.037460000000     0.404370000000     0.891860000000     0.0344721  
H327     H      0.110250000000     0.469330000000     0.905320000000     0.0339716  
H328     H      0.017290000000     0.429780000000     0.912490000000     0.0404392  
H329     H      0.128600000000     0.343710000000     0.796030000000     0.0407726  
H330     H      0.100090000000     0.419100000000     0.790850000000     0.0438777  
H331     H      0.189310000000     0.421310000000     0.796000000000     0.0405519  
H332     H      0.098820000000     0.410640000000     0.923010000000     0.0440888  
H333     H      0.160180000000     0.412650000000     0.845820000000     0.0379321  
H334     H      0.090870000000     0.494480000000     0.927460000000     0.0406474  
H335     H      0.125020000000     0.363580000000     0.763590000000     0.036913   
H336     H      0.046110000000     0.432640000000     0.865760000000     0.0368016  
H337     H      0.088340000000     0.470460000000     0.873880000000     0.0376226  
H338     H      0.121790000000     0.395090000000     0.886730000000     0.0404299  
H339     H      0.124760000000     0.367620000000     0.845510000000     0.0374509  
H340     H      0.034960000000     0.424340000000     0.946340000000     0.0377471  
H341     H      0.333390000000     0.285740000000     0.822520000000     0.0438537  
H342     H      0.262080000000     0.278540000000     0.746750000000     0.0341743  
H343     H      0.323710000000     0.354380000000     0.750800000000     0.0342053  
H344     H      0.341810000000     0.220590000000     0.807640000000     0.0355213  
H345     H      0.249720000000     0.304660000000     0.712930000000     0.0368979  
H346     H      0.386970000000     0.294100000000     0.767940000000     0.0341968  
H347     H      0.312690000000     0.230470000000     0.776550000000     0.0341699  
H348     H      0.404550000000     0.264880000000     0.758640000000     0.0402795  
H349     H      0.293390000000     0.370820000000     0.758820000000     0.0402539  
H350     H      0.309750000000     0.308030000000     0.811050000000     0.0405631  
H351     H      0.231480000000     0.294090000000     0.753350000000     0.0409126  
H352     H      0.338930000000     0.277090000000     0.708920000000     0.040884   
H353     H      0.267210000000     0.297090000000     0.786850000000     0.0380486  
H354     H      0.329130000000     0.200610000000     0.768940000000     0.0407053  
H355     H      0.290820000000     0.355880000000     0.716320000000     0.037554   
H356     H      0.373690000000     0.273550000000     0.729560000000     0.0380442  
H357     H      0.329420000000     0.235440000000     0.734820000000     0.0390448  
H358     H      0.315550000000     0.299600000000     0.697470000000     0.0442516  
H359     H      0.303420000000     0.341430000000     0.789350000000     0.0372142  
H360     H      0.389610000000     0.261020000000     0.801460000000     0.0361228  
H361     H      0.557110000000     0.548910000000     0.784960000000     0.0448794  
H362     H      0.516050000000     0.470060000000     0.687040000000     0.0341446  
H363     H      0.494410000000     0.526370000000     0.691580000000     0.0340721  
H364     H      0.525930000000     0.553410000000     0.890860000000     0.0384055  
H365     H      0.525010000000     0.483690000000     0.627770000000     0.0396421  
H366     H      0.553710000000     0.506210000000     0.840080000000     0.0340093  
H367     H      0.498340000000     0.528860000000     0.843870000000     0.0340116  
H368     H      0.554840000000     0.506350000000     0.908100000000     0.0385804  
H369     H      0.476500000000     0.513410000000     0.627870000000     0.0371158  
H370     H      0.549300000000     0.540150000000     0.720590000000     0.0452216  
H371     H      0.493570000000     0.457420000000     0.624410000000     0.0381345  
H372     H      0.488610000000     0.478530000000     0.808500000000     0.0399728  
H373     H      0.483340000000     0.461720000000     0.683960000000     0.0341174  
H374     H      0.499420000000     0.527240000000     0.912140000000     0.0397284  
H375     H      0.510030000000     0.532430000000     0.632890000000     0.0413837  
H376     H      0.523550000000     0.486360000000     0.861280000000     0.0365278  
H377     H      0.492190000000     0.499030000000     0.863260000000     0.0353264  
H378     H      0.480080000000     0.470520000000     0.744350000000     0.0398395  
H379     H      0.471430000000     0.493250000000     0.685010000000     0.0357644  
H380     H      0.568770000000     0.536940000000     0.886950000000     0.0397016  
H381     H      0.522250000000     0.517860000000     0.207780000000     0.0405083  
H382     H      0.539040000000     0.496670000000     0.332390000000     0.0339505  
H383     H      0.513030000000     0.549810000000     0.336750000000     0.0342174  
H384     H      0.604740000000     0.583380000000     0.146390000000     0.0364484  
H385     H      0.503300000000     0.478860000000     0.372910000000     0.0377116  
H386     H      0.539440000000     0.577970000000     0.189000000000     0.0344702  
H387     H      0.589450000000     0.548140000000     0.189040000000     0.0339132  
H388     H      0.543780000000     0.583900000000     0.122650000000     0.040483   
H389     H      0.505850000000     0.542680000000     0.402740000000     0.0407883  
H390     H      0.505070000000     0.501000000000     0.267250000000     0.0437521  
H391     H      0.531730000000     0.488860000000     0.398430000000     0.0396552  
H392     H      0.586340000000     0.582450000000     0.256430000000     0.0437679  
H393     H      0.556170000000     0.525220000000     0.358830000000     0.0378163  
H394     H      0.594800000000     0.553930000000     0.122880000000     0.04042    
H395     H      0.485800000000     0.515300000000     0.376100000000     0.0363183  
H396     H      0.529620000000     0.548540000000     0.165210000000     0.0391557  
H397     H      0.559770000000     0.530510000000     0.165440000000     0.0386583  
H398     H      0.569930000000     0.564740000000     0.315940000000     0.0404875  
H399     H      0.540960000000     0.556120000000     0.361650000000     0.0373452  
H400     H      0.573210000000     0.601770000000     0.146150000000     0.0355963  
H401     H      0.896180000000     0.235350000000     0.723580000000     0.0402881  
H402     H      0.874400000000     0.250360000000     0.850400000000     0.0340546  
H403     H      0.905210000000     0.201060000000     0.849700000000     0.0344581  
H404     H      0.812570000000     0.169970000000     0.660810000000     0.0378257  
H405     H      0.908220000000     0.265800000000     0.894690000000     0.0370407  
H406     H      0.882520000000     0.178850000000     0.700270000000     0.0341394  
H407     H      0.829730000000     0.205020000000     0.702550000000     0.0337901  
H408     H      0.877490000000     0.173550000000     0.633480000000     0.0404956  
H409     H      0.909500000000     0.203850000000     0.916220000000     0.0408043  
H410     H      0.911560000000     0.250240000000     0.784490000000     0.0438428  
H411     H      0.878250000000     0.253820000000     0.917060000000     0.0400467  
H412     H      0.831710000000     0.168300000000     0.766780000000     0.0438703  
H413     H      0.857010000000     0.219840000000     0.872430000000     0.0383743  
H414     H      0.823990000000     0.199040000000     0.635900000000     0.0393361  
H415     H      0.927870000000     0.233960000000     0.894170000000     0.0361227  
H416     H      0.889260000000     0.207430000000     0.676260000000     0.0366428  
H417     H      0.858790000000     0.222510000000     0.677650000000     0.0371479  
H418     H      0.846290000000     0.183890000000     0.827620000000     0.0408097  
H419     H      0.875450000000     0.190510000000     0.872320000000     0.0386885  
H420     H      0.850050000000     0.151960000000     0.658650000000     0.0365221  
H421     H      0.866070000000     0.201800000000     0.329300000000     0.040872   
H422     H      0.873440000000     0.169270000000     0.200430000000     0.0341678  
H423     H      0.844820000000     0.220240000000     0.204930000000     0.0339231  
H424     H      0.818220000000     0.118260000000     0.393070000000     0.0360552  
H425     H      0.899340000000     0.203350000000     0.159880000000     0.0366198  
H426     H      0.799260000000     0.170490000000     0.350690000000     0.0340554  
H427     H      0.851040000000     0.142880000000     0.349480000000     0.0345087  
H428     H      0.794930000000     0.165130000000     0.417010000000     0.0403895  
H429     H      0.850770000000     0.227160000000     0.138420000000     0.0393887  
H430     H      0.881550000000     0.218200000000     0.269040000000     0.0440094  
H431     H      0.879110000000     0.175580000000     0.134030000000     0.0406873  
H432     H      0.801720000000     0.135810000000     0.283700000000     0.0437891  
H433     H      0.844830000000     0.161750000000     0.176450000000     0.036899   
H434     H      0.847690000000     0.137380000000     0.415930000000     0.0407527  
H435     H      0.879740000000     0.238960000000     0.163230000000     0.037942   
H436     H      0.829140000000     0.188740000000     0.373570000000     0.0386279  
H437     H      0.860060000000     0.172200000000     0.373080000000     0.0387374  
H438     H      0.816440000000     0.153000000000     0.223430000000     0.040306   
H439     H      0.828210000000     0.191250000000     0.179270000000     0.0373418  
H440     H      0.784950000000     0.135640000000     0.393640000000     0.0369212  
H441     H      0.139340000000     0.362630000000     0.507240000000     0.0438458  
H442     H      0.217610000000     0.399360000000     0.593680000000     0.0339568  
H443     H      0.165990000000     0.319830000000     0.596080000000     0.0342244  
H444     H      0.148990000000     0.383600000000     0.395600000000     0.0363062  
H445     H      0.234270000000     0.382550000000     0.637740000000     0.0384409  
H446     H      0.145700000000     0.320310000000     0.443890000000     0.0344644  
H447     H      0.180480000000     0.401080000000     0.443390000000     0.0341104  
H448     H      0.144950000000     0.319460000000     0.377090000000     0.0405824  
H449     H      0.169260000000     0.320130000000     0.663270000000     0.040583   
H450     H      0.152470000000     0.362520000000     0.569370000000     0.0404637  
H451     H      0.221540000000     0.399700000000     0.660660000000     0.0397813  
H452     H      0.205600000000     0.361340000000     0.469780000000     0.04065    
H453     H      0.187830000000     0.387190000000     0.616840000000     0.0372458  
H454     H      0.180210000000     0.401470000000     0.376590000000     0.0404202  
H455     H      0.197490000000     0.326440000000     0.639980000000     0.0374195  
H456     H      0.176910000000     0.338210000000     0.424530000000     0.039278   
H457     H      0.198000000000     0.387130000000     0.424420000000     0.038734   
H458     H      0.218040000000     0.360000000000     0.531780000000     0.0440285  
H459     H      0.158060000000     0.341370000000     0.618270000000     0.0366764  
H460     H      0.127470000000     0.333260000000     0.395930000000     0.0356304  
H461     H      0.265700000000     0.361500000000     0.062850000000     0.0443764  
H462     H      0.202170000000     0.317120000000     0.950900000000     0.0339777  
H463     H      0.254850000000     0.396410000000     0.947580000000     0.0340446  
H464     H      0.255270000000     0.395490000000     0.162330000000     0.0368117  
H465     H      0.224330000000     0.323950000000     0.895050000000     0.0371532  
H466     H      0.214670000000     0.324130000000     0.109730000000     0.034095   
H467     H      0.243870000000     0.404010000000     0.103980000000     0.0341147  
H468     H      0.202820000000     0.323810000000     0.173610000000     0.040436   
H469     H      0.246820000000     0.397330000000     0.882120000000     0.0400436  
H470     H      0.264960000000     0.357370000000     0.997270000000     0.0444366  
H471     H      0.192990000000     0.317830000000     0.885290000000     0.04049    
H472     H      0.195390000000     0.362290000000     0.058580000000     0.0399248  
H473     H      0.191440000000     0.339080000000     0.939130000000     0.0364869  
H474     H      0.231540000000     0.404470000000     0.167870000000     0.0407446  
H475     H      0.261450000000     0.378820000000     0.893400000000     0.0378506  
H476     H      0.193460000000     0.336520000000     0.115950000000     0.0379046  
H477     H      0.210540000000     0.383370000000     0.112590000000     0.0371829  
H478     H      0.195350000000     0.359540000000     0.993340000000     0.0398945  
H479     H      0.222020000000     0.385000000000     0.937090000000     0.0373904  
H480     H      0.236330000000     0.342270000000     0.165750000000     0.0373866  
H481     H      0.027790000000     0.306290000000     0.201700000000     0.0440855  
H482     H      0.005430000000     0.259460000000     0.080230000000     0.033978   
H483     H      0.994130000000     0.323160000000     0.084880000000     0.0346732  
H484     H      0.090060000000     0.309220000000     0.251810000000     0.0372592  
H485     H      0.986560000000     0.262110000000     0.024120000000     0.0364168  
H486     H      0.089910000000     0.367380000000     0.189680000000     0.0343338  
H487     H      0.071620000000     0.290020000000     0.194660000000     0.0340114  
H488     H      0.130860000000     0.380710000000     0.221900000000     0.0407056  
H489     H      0.952220000000     0.298090000000     0.054060000000     0.040983   
H490     H      0.995070000000     0.290660000000     0.155220000000     0.0408379  
H491     H      0.964580000000     0.234030000000     0.048330000000     0.0407949  
H492     H      0.085550000000     0.332580000000     0.120330000000     0.0402594  
H493     H      0.979000000000     0.256580000000     0.105760000000     0.0388283  
H494     H      0.111470000000     0.302290000000     0.227930000000     0.040638   
H495     H      0.978560000000     0.302450000000     0.027330000000     0.0367417  
H496     H      0.110210000000     0.357960000000     0.167430000000     0.037086   
H497     H      0.099520000000     0.312650000000     0.170540000000     0.037924   
H498     H      0.052870000000     0.317950000000     0.073790000000     0.0438072  
H499     H      0.972270000000     0.294570000000     0.108660000000     0.038106   
H500     H      0.103130000000     0.361350000000     0.248200000000     0.0372399  
H501     H      0.353830000000     0.418170000000     0.343420000000     0.0442219  
H502     H      0.388400000000     0.400210000000     0.458400000000     0.0346333  
H503     H      0.381470000000     0.466510000000     0.463770000000     0.034122   
H504     H      0.277410000000     0.363230000000     0.300670000000     0.037371   
H505     H      0.406220000000     0.421160000000     0.515130000000     0.0366358  
H506     H      0.310500000000     0.435330000000     0.353000000000     0.034011   
H507     H      0.291760000000     0.357870000000     0.358650000000     0.034351   
H508     H      0.269850000000     0.422900000000     0.321650000000     0.0404089  
H509     H      0.423400000000     0.490510000000     0.493530000000     0.040885   
H510     H      0.387690000000     0.433500000000     0.388210000000     0.0408585  
H511     H      0.431270000000     0.423740000000     0.487000000000     0.0408944  
H512     H      0.298270000000     0.393850000000     0.427700000000     0.0402117  
H513     H      0.410650000000     0.428010000000     0.433520000000     0.0382593  
H514     H      0.250180000000     0.344540000000     0.328200000000     0.0405596  
H515     H      0.401050000000     0.463270000000     0.518850000000     0.036564   
H516     H      0.283080000000     0.413010000000     0.378250000000     0.0374769  
H517     H      0.272150000000     0.367820000000     0.381680000000     0.0367091  
H518     H      0.332090000000     0.408270000000     0.472550000000     0.0439725  
H519     H      0.406560000000     0.467560000000     0.436870000000     0.0387722  
H520     H      0.290810000000     0.415970000000     0.296590000000     0.0374457  
H521     H      0.507710000000     0.045820000000     0.668740000000     0.0444701  
H522     H      0.533040000000     0.004470000000     0.778560000000     0.0402694  
H523     H      0.577360000000     0.083860000000     0.762510000000     0.0342568  
H524     H      0.534900000000     0.074220000000     0.558920000000     0.0368961  
H525     H      0.554840000000     0.005200000000     0.830140000000     0.0408475  
H526     H      0.509580000000     0.003000000000     0.615920000000     0.034032   
H527     H      0.563720000000     0.081570000000     0.607060000000     0.0339429  
H528     H      0.508310000000     0.998980000000     0.548850000000     0.039549   
H529     H      0.593330000000     0.082520000000     0.827700000000     0.0320272  
H530     H      0.515810000000     0.045360000000     0.733200000000     0.0462438  
H531     H      0.584800000000     0.029020000000     0.812860000000     0.0314142  
H532     H      0.573960000000     0.040120000000     0.645250000000     0.0397976  
H533     H      0.563420000000     0.013530000000     0.759590000000     0.0313766  
H534     H      0.563080000000     0.077060000000     0.539660000000     0.0400555  
H535     H      0.562320000000     0.078280000000     0.821290000000     0.044478   
H536     H      0.540010000000     0.013000000000     0.595820000000     0.0370325  
H537     H      0.571080000000     0.057970000000     0.590870000000     0.0360933  
H538     H      0.582630000000     0.040840000000     0.709460000000     0.0397192  
H539     H      0.594030000000     0.066580000000     0.769470000000     0.0343786  
H540     H      0.495340000000     0.017660000000     0.566140000000     0.0378913  
H541     H      0.530430000000     0.025690000000     0.134700000000     0.0408815  
H542     H      0.529960000000     0.066000000000     0.248920000000     0.0339525  
H543     H      0.478920000000     0.986740000000     0.259280000000     0.0342389  
H544     H      0.474070000000     0.039360000000     0.044690000000     0.0361744  
H545     H      0.544830000000     0.053770000000     0.300530000000     0.0389918  
H546     H      0.479120000000     0.981360000000     0.096640000000     0.034458   
H547     H      0.499850000000     0.059560000000     0.097580000000     0.0340387  
H548     H      0.485920000000     0.983110000000     0.030350000000     0.0404079  
H549     H      0.478060000000     0.992190000000     0.326330000000     0.0404945  
H550     H      0.537420000000     0.027260000000     0.199410000000     0.0441989  
H551     H      0.529650000000     0.070830000000     0.316010000000     0.0391293  
H552     H      0.457700000000     0.019560000000     0.152580000000     0.0437579  
H553     H      0.498890000000     0.054620000000     0.267640000000     0.0372437  
H554     H      0.505890000000     0.062200000000     0.031630000000     0.0406538  
H555     H      0.507080000000     0.996070000000     0.308750000000     0.0377955  
H556     H      0.510930000000     0.004530000000     0.083350000000     0.0385211  
H557     H      0.523280000000     0.051340000000     0.083950000000     0.0390483  
H558     H      0.465470000000     0.022870000000     0.217300000000     0.0404201  
H559     H      0.469720000000     0.009400000000     0.273600000000     0.0361664  
H560     H      0.461530000000     0.989830000000     0.043460000000     0.0353917  
H561     H      0.727370000000     0.121800000000     0.051240000000     0.0403083  
H562     H      0.649350000000     0.118680000000     0.998060000000     0.0341665  
H563     H      0.643010000000     0.045640000000     0.994760000000     0.0340276  
H564     H      0.793390000000     0.186020000000     0.965650000000     0.0368467  
H565     H      0.608520000000     0.088130000000     0.023010000000     0.0359411  
H566     H      0.763040000000     0.108140000000     0.995420000000     0.0339759  
H567     H      0.753070000000     0.172600000000     0.993670000000     0.034102   
H568     H      0.809060000000     0.136390000000     0.011360000000     0.0398423  
H569     H      0.597390000000     0.025790000000     0.977240000000     0.0403967  
H570     H      0.680930000000     0.097740000000     0.054080000000     0.0437422  
H571     H      0.603960000000     0.099890000000     0.981180000000     0.0407759  
H572     H      0.723790000000     0.120400000000     0.935970000000     0.0439327  
H573     H      0.641940000000     0.101960000000     0.955890000000     0.0384004  
H574     H      0.798720000000     0.201030000000     0.008600000000     0.04064    
H575     H      0.604180000000     0.040550000000     0.020620000000     0.0363889  
H576     H      0.768210000000     0.126450000000     0.035750000000     0.0368239  
H577     H      0.762630000000     0.164010000000     0.034640000000     0.0373472  
H578     H      0.677390000000     0.096280000000     0.938780000000     0.0405974  
H579     H      0.638260000000     0.058630000000     0.953900000000     0.0379089  
H580     H      0.800650000000     0.141640000000     0.967400000000     0.0375299  
H581     H      0.253780000000     0.906660000000     0.601970000000     0.0398962  
H582     H      0.225810000000     0.841540000000     0.708080000000     0.0339737  
H583     H      0.203010000000     0.897030000000     0.707550000000     0.0340308  
H584     H      0.187500000000     0.869360000000     0.497690000000     0.0398332  
H585     H      0.198860000000     0.828570000000     0.758240000000     0.0407994  
H586     H      0.248940000000     0.864010000000     0.549880000000     0.0339904  
H587     H      0.195750000000     0.889490000000     0.554640000000     0.0341419  
H588     H      0.258640000000     0.880030000000     0.485020000000     0.0394906  
H589     H      0.209980000000     0.900780000000     0.776260000000     0.0384077  
H590     H      0.250250000000     0.903440000000     0.667310000000     0.0397537  
H591     H      0.230030000000     0.846080000000     0.776530000000     0.0373061  
H592     H      0.182930000000     0.836140000000     0.592190000000     0.0449873  
H593     H      0.246230000000     0.873230000000     0.724890000000     0.0354599  
H594     H      0.204910000000     0.903000000000     0.489630000000     0.0387828  
H595     H      0.181670000000     0.874450000000     0.759090000000     0.039527   
H596     H      0.258690000000     0.897090000000     0.542620000000     0.0351835  
H597     H      0.228560000000     0.911330000000     0.544670000000     0.0365285  
H598     H      0.178750000000     0.833610000000     0.657700000000     0.0452091  
H599     H      0.233670000000     0.904390000000     0.724100000000     0.0342776  
H600     H      0.229400000000     0.851310000000     0.492980000000     0.0386045  
H601     H      0.208500000000     0.874360000000     0.068730000000     0.0411872  
H602     H      0.182380000000     0.888490000000     0.198650000000     0.0342869  
H603     H      0.229500000000     0.855540000000     0.192580000000     0.0340427  
H604     H      0.124490000000     0.824820000000     0.008270000000     0.0354621  
H605     H      0.218280000000     0.913140000000     0.237450000000     0.0359488  
H606     H      0.175420000000     0.806170000000     0.052860000000     0.0341988  
H607     H      0.148990000000     0.859160000000     0.050410000000     0.0345823  
H608     H      0.169360000000     0.799810000000     0.986960000000     0.0407421  
H609     H      0.238320000000     0.862360000000     0.258300000000     0.0399467  
H610     H      0.226900000000     0.891650000000     0.127520000000     0.0440101  
H611     H      0.190500000000     0.895530000000     0.264360000000     0.0407364  
H612     H      0.143300000000     0.812490000000     0.119830000000     0.0437892  
H613     H      0.173500000000     0.859560000000     0.223290000000     0.0379181  
H614     H      0.143020000000     0.854030000000     0.984060000000     0.0405156  
H615     H      0.249720000000     0.891480000000     0.233320000000     0.0371399  
H616     H      0.194070000000     0.835510000000     0.028450000000     0.0395092  
H617     H      0.177990000000     0.867720000000     0.026820000000     0.0396119  
H618     H      0.162420000000     0.829010000000     0.178640000000     0.0405864  
H619     H      0.201160000000     0.840120000000     0.219470000000     0.0381081  
H620     H      0.140500000000     0.791860000000     0.010200000000     0.0361004  
H621     H      0.346050000000     0.947480000000     0.965180000000     0.043968   
H622     H      0.413870000000     0.018710000000     0.883190000000     0.0347051  
H623     H      0.409450000000     0.946550000000     0.876790000000     0.0343071  
H624     H      0.264510000000     0.921320000000     0.957760000000     0.0358377  
H625     H      0.448390000000     0.022820000000     0.845630000000     0.0366974  
H626     H      0.308740000000     0.890960000000     0.921410000000     0.0342183  
H627     H      0.297020000000     0.954460000000     0.920430000000     0.0342912  
H628     H      0.262240000000     0.860970000000     0.919800000000     0.040671   
H629     H      0.456390000000     0.967170000000     0.878320000000     0.0408641  
H630     H      0.390650000000     0.972020000000     0.947210000000     0.0410292  
H631     H      0.461210000000     0.040570000000     0.886290000000     0.0409487  
H632     H      0.323610000000     0.936830000000     0.854220000000     0.0408037  
H633     H      0.425140000000     0.008570000000     0.920960000000     0.0387567  
H634     H      0.250130000000     0.925310000000     0.918120000000     0.0405692  
H635     H      0.445090000000     0.977460000000     0.841100000000     0.0360161  
H636     H      0.293950000000     0.895690000000     0.882530000000     0.0389762  
H637     H      0.287000000000     0.933750000000     0.881880000000     0.0384276  
H638     H      0.368210000000     0.961600000000     0.836240000000     0.0439906  
H639     H      0.422650000000     0.965090000000     0.916970000000     0.0395784  
H640     H      0.272240000000     0.881100000000     0.958650000000     0.0355914  
H641     H      0.810010000000     0.676050000000     0.980520000000     0.0398316  
H642     H      0.801840000000     0.627200000000     0.865810000000     0.0343515  
H643     H      0.848820000000     0.705230000000     0.843170000000     0.0403556  
H644     H      0.887520000000     0.691410000000     0.059160000000     0.0391053  
H645     H      0.815760000000     0.630870000000     0.806330000000     0.0442348  
H646     H      0.814850000000     0.632100000000     0.018910000000     0.0340448  
H647     H      0.875210000000     0.708130000000     0.009890000000     0.034104   
H648     H      0.816580000000     0.636970000000     0.086550000000     0.0400442  
H649     H      0.795470000000     0.681870000000     0.814050000000     0.0319332  
H650     H      0.800710000000     0.674570000000     0.916400000000     0.039781   
H651     H      0.784680000000     0.626670000000     0.801230000000     0.0326158  
H652     H      0.871800000000     0.662910000000     0.957000000000     0.0446258  
H653     H      0.786260000000     0.645490000000     0.858420000000     0.0349329  
H654     H      0.877040000000     0.711880000000     0.077510000000     0.0390567  
H655     H      0.824890000000     0.704150000000     0.793650000000     0.0409043  
H656     H      0.811420000000     0.658110000000     0.035660000000     0.0357626  
H657     H      0.845820000000     0.701360000000     0.030600000000     0.036716   
H658     H      0.863270000000     0.662770000000     0.892580000000     0.0458244  
H659     H      0.820120000000     0.699370000000     0.864630000000     0.0315125  
H660     H      0.842310000000     0.635200000000     0.066540000000     0.0379946  
H661     H      0.923970000000     0.673400000000     0.417250000000     0.0443718  
H662     H      0.898360000000     0.719370000000     0.524250000000     0.0341903  
H663     H      0.876300000000     0.640920000000     0.527740000000     0.0341825  
H664     H      0.881250000000     0.636860000000     0.316080000000     0.0370366  
H665     H      0.911000000000     0.711910000000     0.582380000000     0.0367888  
H666     H      0.916480000000     0.710460000000     0.364690000000     0.0341545  
H667     H      0.858910000000     0.632840000000     0.371190000000     0.0341846  
H668     H      0.909320000000     0.710450000000     0.298770000000     0.0399728  
H669     H      0.863930000000     0.638470000000     0.591710000000     0.0405369  
H670     H      0.924450000000     0.678320000000     0.482640000000     0.0442951  
H671     H      0.884970000000     0.717470000000     0.588320000000     0.0407503  
H672     H      0.854540000000     0.675830000000     0.411390000000     0.0401726  
H673     H      0.865580000000     0.696160000000     0.532450000000     0.037251   
H674     H      0.850670000000     0.632460000000     0.305210000000     0.0408059  
H675     H      0.897100000000     0.659750000000     0.584070000000     0.0374691  
H676     H      0.884300000000     0.701530000000     0.353550000000     0.0380327  
H677     H      0.850780000000     0.656400000000     0.357180000000     0.0369899  
H678     H      0.854090000000     0.678940000000     0.476440000000     0.0401883  
H679     H      0.852740000000     0.650250000000     0.534510000000     0.0384193  
H680     H      0.920930000000     0.689640000000     0.312160000000     0.0380073  
H681     H      0.713490000000     0.617590000000     0.538470000000     0.0438792  
H682     H      0.624070000000     0.606350000000     0.557950000000     0.0341097  
H683     H      0.630390000000     0.539850000000     0.557030000000     0.0342204  
H684     H      0.778290000000     0.669030000000     0.602340000000     0.0379071  
H685     H      0.581590000000     0.573650000000     0.568390000000     0.0395754  
H686     H      0.728270000000     0.588250000000     0.610100000000     0.0341907  
H687     H      0.735960000000     0.661800000000     0.610160000000     0.0340739  
H688     H      0.767870000000     0.604620000000     0.646710000000     0.0405941  
H689     H      0.589320000000     0.517110000000     0.521680000000     0.0394344  
H690     H      0.668960000000     0.595740000000     0.519380000000     0.0401607  
H691     H      0.582910000000     0.582340000000     0.522350000000     0.0387376  
H692     H      0.689840000000     0.606440000000     0.648880000000     0.0405258  
H693     H      0.626380000000     0.592710000000     0.516300000000     0.0358263  
H694     H      0.775790000000     0.678460000000     0.646960000000     0.039839   
H695     H      0.586510000000     0.523050000000     0.567860000000     0.0390884  
H696     H      0.727420000000     0.602670000000     0.651890000000     0.0371373  
H697     H      0.731780000000     0.645180000000     0.651900000000     0.0370264  
H698     H      0.645360000000     0.584180000000     0.629790000000     0.0445928  
H699     H      0.629800000000     0.554960000000     0.515760000000     0.0357559  
H700     H      0.772790000000     0.617360000000     0.602240000000     0.0372259  
H701     H      0.981230000000     0.727670000000     0.840460000000     0.0442927  
H702     H      0.062110000000     0.805560000000     0.808230000000     0.0342627  
H703     H      0.070990000000     0.740530000000     0.813910000000     0.0343695  
H704     H      0.918470000000     0.725310000000     0.783860000000     0.0375824  
H705     H      0.106100000000     0.820940000000     0.795770000000     0.0375603  
H706     H      0.954840000000     0.681220000000     0.771190000000     0.0344145  
H707     H      0.962460000000     0.754760000000     0.771480000000     0.0342795  
H708     H      0.913260000000     0.663720000000     0.738760000000     0.0403425  
H709     H      0.112700000000     0.766530000000     0.845870000000     0.0400896  
H710     H      0.026630000000     0.750600000000     0.854580000000     0.0406048  
H711     H      0.103580000000     0.831640000000     0.839480000000     0.0407329  
H712     H      0.998730000000     0.735250000000     0.727790000000     0.0407312  
H713     H      0.063920000000     0.793080000000     0.851300000000     0.0373317  
H714     H      0.921070000000     0.737790000000     0.739540000000     0.040811   
H715     H      0.112540000000     0.775530000000     0.800140000000     0.038363   
H716     H      0.956930000000     0.696900000000     0.729220000000     0.0373257  
H717     H      0.961220000000     0.739620000000     0.729390000000     0.037517   
H718     H      0.044120000000     0.758470000000     0.741910000000     0.0443398  
H719     H      0.068890000000     0.755350000000     0.854580000000     0.0371098  
H720     H      0.913060000000     0.674550000000     0.783410000000     0.0384325  
N1       N      0.729180000000     0.953630000000     0.780520000000    -0.167511   
N2       N      0.741570000000     0.993080000000     0.730380000000    -0.113964   
N3       N      0.764870000000     0.050100000000     0.600460000000    -0.114138   
N4       N      0.788280000000     0.091500000000     0.552430000000    -0.167824   
N5       N      0.878490000000     0.239540000000     0.500150000000    -0.167538   
N6       N      0.910370000000     0.292570000000     0.490540000000    -0.113893   
N7       N      0.967120000000     0.400080000000     0.511880000000    -0.113969   
N8       N      0.991150000000     0.453230000000     0.500150000000    -0.167515   
N9       N      0.171990000000     0.808010000000     0.380710000000    -0.167123   
N10      N      0.138330000000     0.756430000000     0.396820000000    -0.113368   
N11      N      0.078370000000     0.648210000000     0.400950000000    -0.113731   
N12      N      0.054830000000     0.596770000000     0.423180000000    -0.167443   
N13      N      0.594950000000     0.618960000000     0.978540000000    -0.167189   
N14      N      0.623580000000     0.667640000000     0.947360000000    -0.11355    
N15      N      0.672660000000     0.773580000000     0.915840000000    -0.113717   
N16      N      0.688170000000     0.820840000000     0.881940000000    -0.167332   
N17      N      0.272140000000     0.958660000000     0.368750000000    -0.167897   
N18      N      0.304060000000     0.008470000000     0.342810000000    -0.114061   
N19      N      0.347930000000     0.094010000000     0.248770000000    -0.11403    
N20      N      0.366890000000     0.143960000000     0.222440000000    -0.167913   
N21      N      0.419330000000     0.295290000000     0.210920000000    -0.167922   
N22      N      0.438060000000     0.344540000000     0.182000000000    -0.11404    
N23      N      0.478810000000     0.426700000000     0.082040000000    -0.113893   
N24      N      0.507570000000     0.474860000000     0.049310000000    -0.16772    
N25      N      0.707190000000     0.853140000000     0.432960000000    -0.166728   
N26      N      0.703790000000     0.853110000000     0.507860000000    -0.113057   
N27      N      0.701820000000     0.843710000000     0.660080000000    -0.113926   
N28      N      0.703310000000     0.854130000000     0.734030000000    -0.167542   
N29      N      0.706770000000     0.879110000000     0.221170000000    -0.166957   
N30      N      0.709040000000     0.883870000000     0.146140000000    -0.113296   
N31      N      0.710740000000     0.905930000000     0.997400000000    -0.111211   
N32      N      0.713630000000     0.917790000000     0.927480000000    -0.16589    
N33      N      0.735780000000     0.820770000000     0.299360000000    -0.167155   
N34      N      0.755350000000     0.790680000000     0.272260000000    -0.113463   
N35      N      0.802770000000     0.731390000000     0.247560000000    -0.113557   
N36      N      0.828060000000     0.706810000000     0.220030000000    -0.167242   
N37      N      0.677940000000     0.910120000000     0.354600000000    -0.16737    
N38      N      0.657100000000     0.939870000000     0.378610000000    -0.11355    
N39      N      0.599970000000     0.990200000000     0.393200000000    -0.113425   
N40      N      0.568030000000     0.008810000000     0.415060000000    -0.167241   
N41      N      0.029430000000     0.551110000000     0.563510000000    -0.167854   
N42      N      0.030310000000     0.557610000000     0.638310000000    -0.113843   
N43      N      0.020510000000     0.542410000000     0.789490000000    -0.113636   
N44      N      0.020530000000     0.528040000000     0.861300000000    -0.167594   
N45      N      0.023160000000     0.480860000000     0.062340000000    -0.16809    
N46      N      0.021270000000     0.476530000000     0.137540000000    -0.113982   
N47      N      0.018390000000     0.497250000000     0.285620000000    -0.113165   
N48      N      0.018080000000     0.502370000000     0.360070000000    -0.167221   
N49      N      0.906560000000     0.636750000000     0.167370000000    -0.167611   
N50      N      0.931820000000     0.613720000000     0.134530000000    -0.11393    
N51      N      0.970930000000     0.573130000000     0.031070000000    -0.113861   
N52      N      0.991610000000     0.546190000000     0.996550000000    -0.167514   
N53      N      0.399060000000     0.164130000000     0.822080000000    -0.1681     
N54      N      0.400640000000     0.169660000000     0.897070000000    -0.114068   
N55      N      0.399850000000     0.209360000000     0.035240000000    -0.113796   
N56      N      0.397800000000     0.217280000000     0.109270000000    -0.167544   
N57      N      0.389080000000     0.223830000000     0.324100000000    -0.167282   
N58      N      0.386510000000     0.227600000000     0.398960000000    -0.113574   
N59      N      0.379090000000     0.217180000000     0.550860000000    -0.113818   
N60      N      0.382820000000     0.206070000000     0.623230000000    -0.167605   
N61      N      0.471760000000     0.061640000000     0.448750000000    -0.168047   
N62      N      0.447930000000     0.078720000000     0.496950000000    -0.114215   
N63      N      0.426230000000     0.111520000000     0.628570000000    -0.114004   
N64      N      0.413660000000     0.138150000000     0.678840000000    -0.167765   
N65      N      0.160430000000     0.381810000000     0.789970000000    -0.167548   
N66      N      0.126750000000     0.398020000000     0.813630000000    -0.113872   
N67      N      0.075040000000     0.434750000000     0.900600000000    -0.113733   
N68      N      0.052750000000     0.462410000000     0.927880000000    -0.167399   
N69      N      0.260200000000     0.333960000000     0.751170000000    -0.167518   
N70      N      0.294560000000     0.315710000000     0.745330000000    -0.113826   
N71      N      0.348960000000     0.264070000000     0.774750000000    -0.11407    
N72      N      0.368300000000     0.230710000000     0.765610000000    -0.168067   
N73      N      0.497200000000     0.494160000000     0.617770000000    -0.166776   
N74      N      0.509760000000     0.501560000000     0.689690000000    -0.112481   
N75      N      0.528570000000     0.521040000000     0.838790000000    -0.113186   
N76      N      0.534100000000     0.526180000000     0.913120000000    -0.167254   
N77      N      0.514160000000     0.511920000000     0.403970000000    -0.167724   
N78      N      0.524250000000     0.521910000000     0.330320000000    -0.113797   
N79      N      0.564950000000     0.563620000000     0.193330000000    -0.114137   
N80      N      0.570130000000     0.569900000000     0.118560000000    -0.168217   
N81      N      0.895830000000     0.230550000000     0.920950000000    -0.167898   
N82      N      0.890900000000     0.226700000000     0.845830000000    -0.113938   
N83      N      0.854380000000     0.189690000000     0.705510000000    -0.113724   
N84      N      0.846000000000     0.180350000000     0.631490000000    -0.167525   
N85      N      0.870200000000     0.205900000000     0.132890000000    -0.167549   
N86      N      0.861150000000     0.196360000000     0.206870000000    -0.113714   
N87      N      0.824330000000     0.155730000000     0.345800000000    -0.113973   
N88      N      0.819850000000     0.149450000000     0.420760000000    -0.167839   
N89      N      0.200240000000     0.358850000000     0.665560000000    -0.167573   
N90      N      0.193730000000     0.359090000000     0.591030000000    -0.11368    
N91      N      0.162320000000     0.360660000000     0.447850000000    -0.114147   
N92      N      0.162130000000     0.360440000000     0.372520000000    -0.168377   
N93      N      0.223120000000     0.356560000000     0.877710000000    -0.167618   
N94      N      0.230870000000     0.356240000000     0.952030000000    -0.113774   
N95      N      0.231820000000     0.364390000000     0.104080000000    -0.113878   
N96      N      0.219440000000     0.364710000000     0.176670000000    -0.167788   
N97      N      0.956270000000     0.264860000000     0.046880000000    -0.167879   
N98      N      0.002980000000     0.293320000000     0.082640000000    -0.114043   
N99      N      0.077460000000     0.327740000000     0.192920000000    -0.113836   
N100     N      0.122290000000     0.342070000000     0.231820000000    -0.16766    
N101     N      0.429570000000     0.458270000000     0.494550000000    -0.167712   
N102     N      0.381710000000     0.431500000000     0.461150000000    -0.113961   
N103     N      0.304470000000     0.397530000000     0.354740000000    -0.113788   
N104     N      0.258970000000     0.383150000000     0.317460000000    -0.167493   
N105     N      0.563360000000     0.044420000000     0.834330000000    -0.16613    
N106     N      0.553980000000     0.043310000000     0.764000000000    -0.111133   
N107     N      0.534480000000     0.043160000000     0.614780000000    -0.113593   
N108     N      0.530440000000     0.039380000000     0.539740000000    -0.167537   
N109     N      0.509640000000     0.030530000000     0.325980000000    -0.167235   
N110     N      0.506890000000     0.025600000000     0.251090000000    -0.113371   
N111     N      0.487850000000     0.020010000000     0.100910000000    -0.114027   
N112     N      0.495070000000     0.022450000000     0.026200000000    -0.168257   
N113     N      0.596850000000     0.061110000000     0.981180000000    -0.167855   
N114     N      0.648510000000     0.083090000000     0.999660000000    -0.11406    
N115     N      0.756080000000     0.139110000000     0.990280000000    -0.113781   
N116     N      0.808190000000     0.171220000000     0.003980000000    -0.167648   
N117     N      0.207980000000     0.864530000000     0.779670000000    -0.167086   
N118     N      0.210310000000     0.866170000000     0.705460000000    -0.11276    
N119     N      0.219280000000     0.872760000000     0.553750000000    -0.113141   
N120     N      0.225150000000     0.883030000000     0.480370000000    -0.167359   
N121     N      0.217570000000     0.882310000000     0.265040000000    -0.168033   
N122     N      0.207030000000     0.873410000000     0.191350000000    -0.113935   
N123     N      0.161890000000     0.832460000000     0.055970000000    -0.114132   
N124     N      0.155760000000     0.826510000000     0.981310000000    -0.168344   
N125     N      0.461970000000     0.005370000000     0.881590000000    -0.167823   
N126     N      0.408740000000     0.981360000000     0.878430000000    -0.114067   
N127     N      0.305710000000     0.924520000000     0.922900000000    -0.114101   
N128     N      0.252900000000     0.891090000000     0.920750000000    -0.168071   
N129     N      0.814620000000     0.664340000000     0.791410000000    -0.165903   
N130     N      0.826530000000     0.667460000000     0.861760000000    -0.111357   
N131     N      0.847080000000     0.668850000000     0.011100000000    -0.113279   
N132     N      0.852380000000     0.671830000000     0.086100000000    -0.166614   
N133     N      0.876780000000     0.678700000000     0.596020000000    -0.167253   
N134     N      0.890020000000     0.680770000000     0.523150000000    -0.113731   
N135     N      0.889750000000     0.671000000000     0.371070000000    -0.113625   
N136     N      0.882490000000     0.670180000000     0.296320000000    -0.167097   
N137     N      0.579300000000     0.545790000000     0.532090000000    -0.166937   
N138     N      0.627500000000     0.573230000000     0.563450000000    -0.113105   
N139     N      0.731310000000     0.624710000000     0.604990000000    -0.113669   
N140     N      0.777600000000     0.643990000000     0.642380000000    -0.167298   
N141     N      0.113580000000     0.802140000000     0.837670000000    -0.167189   
N142     N      0.065490000000     0.772230000000     0.806080000000    -0.113597   
N143     N      0.959830000000     0.718460000000     0.776130000000    -0.113679   
N144     N      0.911970000000     0.698530000000     0.743110000000    -0.167248   
O1       O      0.881910000000     0.704680000000     0.715180000000    -0.399003   
O2       O      0.813570000000     0.677190000000     0.666860000000    -0.397817   
O3       O      0.831790000000     0.687170000000     0.739800000000    -0.397914   
O4       O      0.864320000000     0.694930000000     0.642330000000    -0.39704    
O5       O      0.857750000000     0.655360000000     0.646520000000    -0.398675   
O6       O      0.825200000000     0.647580000000     0.743840000000    -0.397258   
O7       O      0.807470000000     0.637790000000     0.670870000000    -0.399295   
O8       O      0.875800000000     0.665270000000     0.719210000000    -0.397644   
O9       O      0.144240000000     0.840130000000     0.861060000000    -0.400153   
O10      O      0.214370000000     0.885040000000     0.902090000000    -0.399466   
O11      O      0.192940000000     0.872440000000     0.831460000000    -0.399582   
O12      O      0.165010000000     0.852240000000     0.931950000000    -0.399524   
O13      O      0.172710000000     0.819930000000     0.930490000000    -0.400198   
O14      O      0.200130000000     0.839760000000     0.829780000000    -0.399228   
O15      O      0.221500000000     0.852380000000     0.900230000000    -0.399688   
O16      O      0.151030000000     0.807210000000     0.859850000000    -0.397353   
O17      O      0.498260000000     0.038980000000     0.904660000000    -0.397814   
O18      O      0.566130000000     0.066910000000     0.954620000000    -0.399391   
O19      O      0.549750000000     0.058700000000     0.881430000000    -0.398959   
O20      O      0.515120000000     0.047500000000     0.977530000000    -0.400725   
O21      O      0.509420000000     0.008200000000     0.979790000000    -0.398702   
O22      O      0.544310000000     0.019480000000     0.883620000000    -0.399128   
O23      O      0.560940000000     0.027800000000     0.956870000000    -0.399018   
O24      O      0.493310000000     0.999960000000     0.906610000000    -0.400146   
O25      O      0.230400000000     0.393340000000     0.293810000000    -0.399651   
O26      O      0.161900000000     0.372850000000     0.250240000000    -0.398425   
O27      O      0.182220000000     0.382140000000     0.321470000000    -0.399599   
O28      O      0.210510000000     0.384150000000     0.222610000000    -0.398791   
O29      O      0.199340000000     0.343180000000     0.227810000000    -0.40017    
O30      O      0.170500000000     0.341000000000     0.326140000000    -0.400296   
O31      O      0.151010000000     0.331940000000     0.254960000000    -0.40027    
O32      O      0.219310000000     0.352400000000     0.299160000000    -0.398437   
O33      O      0.841510000000     0.210660000000     0.017820000000    -0.400447   
O34      O      0.915940000000     0.257920000000     0.038680000000    -0.398444   
O35      O      0.885240000000     0.240480000000     0.975110000000    -0.398102   
O36      O      0.871670000000     0.227650000000     0.081680000000    -0.397506   
O37      O      0.879120000000     0.195240000000     0.078120000000    -0.400137   
O38      O      0.892560000000     0.207960000000     0.971890000000    -0.39978    
O39      O      0.922740000000     0.225090000000     0.035120000000    -0.400115   
O40      O      0.848150000000     0.177720000000     0.014650000000    -0.398165   
O41      O      0.540370000000     0.541700000000     0.520650000000    -0.39778    
O42      O      0.464770000000     0.497260000000     0.504550000000    -0.399981   
O43      O      0.497240000000     0.514420000000     0.565900000000    -0.399886   
O44      O      0.507450000000     0.524340000000     0.458870000000    -0.400667   
O45      O      0.512730000000     0.490540000000     0.455510000000    -0.398254   
O46      O      0.501890000000     0.480190000000     0.562740000000    -0.398027   
O47      O      0.469200000000     0.462970000000     0.500870000000    -0.398125   
O48      O      0.544700000000     0.507290000000     0.517770000000    -0.399146   
O49      O      0.169820000000     0.349770000000     0.782720000000    -0.399348   
O50      O      0.220010000000     0.325900000000     0.763280000000    -0.400556   
O51      O      0.200970000000     0.337160000000     0.826520000000    -0.398981   
O52      O      0.189390000000     0.338420000000     0.719860000000    -0.399605   
O53      O      0.220470000000     0.378910000000     0.717470000000    -0.399434   
O54      O      0.231990000000     0.377660000000     0.824010000000    -0.400045   
O55      O      0.251420000000     0.366230000000     0.761130000000    -0.397479   
O56      O      0.201060000000     0.390160000000     0.780350000000    -0.399133   
O57      O      0.359720000000     0.191940000000     0.743340000000    -0.40042    
O58      O      0.382410000000     0.145210000000     0.700360000000    -0.398781   
O59      O      0.375160000000     0.158200000000     0.771750000000    -0.398945   
O60      O      0.366820000000     0.179390000000     0.671850000000    -0.398147   
O61      O      0.406900000000     0.210990000000     0.672980000000    -0.39994    
O62      O      0.415340000000     0.189590000000     0.772490000000    -0.399215   
O63      O      0.422390000000     0.177020000000     0.701070000000    -0.399454   
O64      O      0.399690000000     0.223780000000     0.744230000000    -0.398408   
O65      O      0.017990000000     0.466560000000     0.940110000000    -0.397017   
O66      O      0.987350000000     0.508590000000     0.975740000000    -0.398684   
O67      O      0.001980000000     0.499380000000     0.907230000000    -0.398799   
O68      O      0.003000000000     0.476090000000     0.008680000000    -0.399059   
O69      O      0.041990000000     0.509020000000     0.016040000000    -0.399718   
O70      O      0.040860000000     0.532450000000     0.914760000000    -0.399476   
O71      O      0.026080000000     0.541880000000     0.983320000000    -0.399045   
O72      O      0.056620000000     0.499990000000     0.947730000000    -0.401054   
O73      O      0.673050000000     0.871630000000     0.337170000000    -0.400537   
O74      O      0.702010000000     0.826170000000     0.312730000000    -0.398939   
O75      O      0.688090000000     0.841840000000     0.377780000000    -0.397779   
O76      O      0.686900000000     0.856420000000     0.271900000000    -0.397357   
O77      O      0.726040000000     0.889600000000     0.276210000000    -0.398836   
O78      O      0.727290000000     0.874980000000     0.381880000000    -0.39781    
O79      O      0.741070000000     0.859530000000     0.316660000000    -0.398291   
O80      O      0.712020000000     0.905130000000     0.341180000000    -0.397122   
O81      O      0.829420000000     0.670380000000     0.207090000000    -0.397016   
O82      O      0.869250000000     0.635200000000     0.181930000000    -0.398679   
O83      O      0.857320000000     0.651880000000     0.247000000000    -0.397711   
O84      O      0.841560000000     0.653310000000     0.141750000000    -0.397702   
O85      O      0.876450000000     0.691260000000     0.136000000000    -0.396861   
O86      O      0.891990000000     0.690010000000     0.241510000000    -0.397712   
O87      O      0.904280000000     0.673040000000     0.176670000000    -0.398895   
O88      O      0.864510000000     0.708160000000     0.201330000000    -0.399924   
O89      O      0.528440000000     0.002120000000     0.428350000000    -0.399818   
O90      O      0.479630000000     0.028460000000     0.442760000000    -0.399111   
O91      O      0.498270000000     0.013280000000     0.382190000000    -0.399943   
O92      O      0.510050000000     0.017040000000     0.489200000000    -0.399802   
O93      O      0.541670000000     0.057080000000     0.483650000000    -0.398665   
O94      O      0.529920000000     0.053300000000     0.376380000000    -0.398025   
O95      O      0.511520000000     0.068320000000     0.436970000000    -0.400102   
O96      O      0.560400000000     0.042010000000     0.423000000000    -0.398113   
O97      O      0.399790000000     0.185350000000     0.222100000000    -0.39867    
O98      O      0.426000000000     0.261370000000     0.216330000000    -0.400059   
O99      O      0.410750000000     0.225120000000     0.273200000000    -0.398699   
O100     O      0.415250000000     0.222190000000     0.165210000000    -0.398927   
O101     O      0.375510000000     0.214200000000     0.160310000000    -0.398677   
O102     O      0.371030000000     0.217220000000     0.268330000000    -0.398518   
O103     O      0.386450000000     0.253910000000     0.211380000000    -0.398618   
O104     O      0.360240000000     0.177900000000     0.217230000000    -0.400283   
O105     O      0.545980000000     0.507780000000     0.031020000000    -0.399665   
O106     O      0.590420000000     0.580670000000     0.997180000000    -0.397163   
O107     O      0.577360000000     0.555370000000     0.065750000000    -0.399552   
O108     O      0.558800000000     0.532620000000     0.962760000000    -0.398573   
O109     O      0.525920000000     0.539060000000     0.966690000000    -0.399832   
O110     O      0.545090000000     0.562750000000     0.069150000000    -0.399972   
O111     O      0.557310000000     0.586780000000     0.000220000000    -0.400362   
O112     O      0.513210000000     0.514320000000     0.035280000000    -0.399272   
O113     O      0.263030000000     0.916970000000     0.368960000000    -0.398734   
O114     O      0.212530000000     0.841270000000     0.373840000000    -0.39959    
O115     O      0.235010000000     0.877740000000     0.317030000000    -0.398989   
O116     O      0.240110000000     0.879950000000     0.425350000000    -0.398867   
O117     O      0.208420000000     0.888270000000     0.428240000000    -0.40053    
O118     O      0.204010000000     0.887040000000     0.320180000000    -0.400812   
O119     O      0.180780000000     0.849530000000     0.376130000000    -0.397897   
O120     O      0.231400000000     0.925310000000     0.372540000000    -0.400214   
O121     O      0.058080000000     0.563250000000     0.445660000000    -0.399633   
O122     O      0.026130000000     0.490820000000     0.483120000000    -0.398208   
O123     O      0.039120000000     0.514570000000     0.413680000000    -0.399951   
O124     O      0.045450000000     0.540320000000     0.515300000000    -0.399293   
O125     O      0.007060000000     0.536060000000     0.511240000000    -0.399245   
O126     O      0.000730000000     0.510360000000     0.409450000000    -0.398031   
O127     O      0.987970000000     0.487130000000     0.479060000000    -0.399262   
O128     O      0.019940000000     0.559630000000     0.441730000000    -0.397653   
O129     O      0.872650000000     0.199720000000     0.512260000000    -0.398483   
O130     O      0.826990000000     0.125090000000     0.536780000000    -0.400005   
O131     O      0.842750000000     0.153860000000     0.471700000000    -0.399004   
O132     O      0.856430000000     0.170290000000     0.577320000000    -0.399374   
O133     O      0.823810000000     0.177170000000     0.580220000000    -0.398367   
O134     O      0.809940000000     0.160430000000     0.474620000000    -0.398393   
O135     O      0.793950000000     0.131250000000     0.540110000000    -0.397531   
O136     O      0.839550000000     0.205830000000     0.514840000000    -0.399271   
O137     O      0.718630000000     0.858280000000     0.856520000000    -0.397095   
O138     O      0.739220000000     0.925660000000     0.807260000000    -0.398904   
O139     O      0.731660000000     0.908390000000     0.880340000000    -0.397492   
O140     O      0.726270000000     0.875780000000     0.783530000000    -0.398903   
O141     O      0.685590000000     0.864830000000     0.780310000000    -0.398142   
O142     O      0.691150000000     0.898080000000     0.876690000000    -0.398734   
O143     O      0.698700000000     0.915250000000     0.803550000000    -0.398759   
O144     O      0.678190000000     0.848300000000     0.853640000000    -0.399502   


