data_structure

_audit_creation_method RASPA-1.0
_audit_creation_date 2023-5-25
_audit_author_name 'Poobodin Mano'

_cell_length_a    38.296
_cell_length_b    38.2964
_cell_length_c    38.2881
_cell_angle_alpha 90
_cell_angle_beta  90
_cell_angle_gamma 90
_cell_volume      56153.3

_symmetry_cell_setting          triclinic
_symmetry_space_group_name_Hall 'P 1'
_symmetry_space_group_name_H-M  'P 1'
_symmetry_Int_Tables_number     1

_symmetry_equiv_pos_as_xyz 'x,y,z'

loop_
_atom_site_label
_atom_site_type_symbol
_atom_site_fract_x
_atom_site_fract_y
_atom_site_fract_z
_atom_site_charge
C1       C      0.018620000000     0.057640000000     0.494850000000     0.401591   
C2       C      0.004140000000     0.920430000000     0.512740000000     0.39887    
C3       C      0.941640000000     0.997190000000     0.501430000000     0.39943    
C4       C      0.079830000000     0.981540000000     0.506290000000     0.400968   
C5       C      0.002530000000     0.419980000000     0.473150000000     0.399644   
C6       C      0.997630000000     0.556000000000     0.502060000000     0.400166   
C7       C      0.992360000000     0.502350000000     0.420550000000     0.399997   
C8       C      0.007980000000     0.472990000000     0.555610000000     0.400262   
C9       C      0.576550000000     0.004930000000     0.505110000000     0.40207    
C10      C      0.440160000000     0.011370000000     0.478420000000     0.403343   
C11      C      0.522330000000     0.015890000000     0.424040000000     0.403099   
C12      C      0.494080000000     0.000780000000     0.559370000000     0.402421   
C13      C      0.495320000000     0.003000000000     0.061220000000     0.399273   
C14      C      0.483730000000     0.993390000000     0.922860000000     0.400595   
C15      C      0.494030000000     0.067980000000     0.986710000000     0.401368   
C16      C      0.484660000000     0.929520000000     0.996480000000     0.401157   
C17      C      0.052750000000     0.488840000000     0.992920000000     0.400706   
C18      C      0.914290000000     0.493760000000     0.981870000000     0.402394   
C19      C      0.977170000000     0.496090000000     0.056880000000     0.401042   
C20      C      0.988620000000     0.486720000000     0.918610000000     0.401617   
C21      C      0.501320000000     0.430910000000     0.013210000000     0.399531   
C22      C      0.470640000000     0.566230000000     0.020590000000     0.399778   
C23      C      0.417930000000     0.484410000000     0.017300000000     0.398149   
C24      C      0.553690000000     0.513920000000     0.016400000000     0.400116   
C25      C      0.826430000000     0.533100000000     0.977140000000    -0.0292087  
C26      C      0.646450000000     0.501890000000     0.035200000000    -0.030481   
C27      C      0.603650000000     0.542350000000     0.986970000000    -0.0070142  
C28      C      0.610650000000     0.515460000000     0.046820000000    -0.00642726 
C29      C      0.723460000000     0.536820000000     0.020710000000    -0.0527854  
C30      C      0.743610000000     0.487330000000     0.971040000000    -0.0530716  
C31      C      0.697800000000     0.518280000000     0.002350000000     0.0618039  
C32      C      0.639780000000     0.528290000000     0.977660000000    -0.0301075  
C33      C      0.769230000000     0.506900000000     0.988320000000     0.0634293  
C34      C      0.822000000000     0.474990000000     0.002260000000    -0.0340781  
C35      C      0.758880000000     0.530790000000     0.014340000000    -0.0557174  
C36      C      0.857310000000     0.463900000000     0.986730000000     0.0161975  
C37      C      0.861920000000     0.525000000000     0.960850000000    -0.00678465 
C38      C      0.708240000000     0.492390000000     0.978370000000    -0.0546657  
C39      C      0.851910000000     0.442850000000     0.955000000000     0.056031   
C40      C      0.143460000000     0.452450000000     0.998300000000    -0.0296321  
C41      C      0.326830000000     0.462530000000     0.987500000000    -0.0301391  
C42      C      0.362650000000     0.490260000000     0.048850000000    -0.00711614 
C43      C      0.364910000000     0.473480000000     0.983440000000    -0.00573488 
C44      C      0.250980000000     0.463110000000     0.029680000000    -0.0549109  
C45      C      0.220650000000     0.506110000000     0.979070000000    -0.0537947  
C46      C      0.272310000000     0.485370000000     0.009530000000     0.0614622  
C47      C      0.323960000000     0.480160000000     0.047720000000    -0.0296908  
C48      C      0.199240000000     0.484470000000     0.999340000000     0.0629084  
C49      C      0.144850000000     0.513880000000     0.012870000000    -0.0343071  
C50      C      0.214690000000     0.463440000000     0.025350000000    -0.0557322  
C51      C      0.108560000000     0.520520000000     0.997240000000     0.0164522  
C52      C      0.106570000000     0.455080000000     0.983150000000    -0.00643257 
C53      C      0.256670000000     0.506840000000     0.984360000000    -0.0527071  
C54      C      0.111940000000     0.537330000000     0.962780000000     0.0557792  
C55      C      0.444250000000     0.841270000000     0.004520000000    -0.0296833  
C56      C      0.481960000000     0.657850000000     0.045200000000    -0.0304702  
C57      C      0.441950000000     0.617720000000     0.994350000000    -0.00696432 
C58      C      0.468940000000     0.621150000000     0.054500000000    -0.00643601 
C59      C      0.446670000000     0.734840000000     0.037620000000    -0.053086   
C60      C      0.491590000000     0.759960000000     0.985960000000    -0.0531651  
C61      C      0.464320000000     0.711110000000     0.016060000000     0.0616214  
C62      C      0.455500000000     0.654560000000     0.987430000000    -0.0300975  
C63      C      0.472660000000     0.783720000000     0.006370000000     0.0628427  
C64      C      0.506230000000     0.836660000000     0.016190000000    -0.0343409  
C65      C      0.451250000000     0.770800000000     0.033410000000    -0.0557142  
C66      C      0.513940000000     0.872200000000     0.999200000000     0.0165384  
C67      C      0.448290000000     0.877270000000     0.987830000000    -0.00625054 
C68      C      0.488150000000     0.724030000000     0.991160000000    -0.0547769  
C69      C      0.528480000000     0.867100000000     0.963940000000     0.0555815  
C70      C      0.534340000000     0.156210000000     0.982930000000    -0.0297518  
C71      C      0.494940000000     0.336820000000     0.031550000000    -0.0303644  
C72      C      0.528320000000     0.382310000000     0.980440000000    -0.00731347 
C73      C      0.506550000000     0.373560000000     0.042290000000    -0.00649614 
C74      C      0.533570000000     0.262870000000     0.017620000000    -0.0531233  
C75      C      0.485600000000     0.237450000000     0.968930000000    -0.0534252  
C76      C      0.513450000000     0.286510000000     0.998220000000     0.061467   
C77      C      0.516450000000     0.345080000000     0.972390000000    -0.0300062  
C78      C      0.506440000000     0.213830000000     0.987580000000     0.0627805  
C79      C      0.474370000000     0.161440000000     0.002600000000    -0.0343606  
C80      C      0.529700000000     0.226870000000     0.012970000000    -0.0558839  
C81      C      0.464660000000     0.125320000000     0.988130000000     0.0164434  
C82      C      0.528030000000     0.119580000000     0.968290000000    -0.00629959 
C83      C      0.488450000000     0.273370000000     0.974620000000    -0.0548226  
C84      C      0.446100000000     0.128970000000     0.954640000000     0.0548378  
C85      C      0.495660000000     0.017410000000     0.654710000000    -0.0305446  
C86      C      0.443500000000     0.987360000000     0.834060000000    -0.0300299  
C87      C      0.512740000000     0.987850000000     0.865850000000    -0.00621473 
C88      C      0.447380000000     0.976860000000     0.872430000000    -0.00687587 
C89      C      0.492870000000     0.958740000000     0.756560000000    -0.0524743  
C90      C      0.451040000000     0.008690000000     0.723930000000    -0.052326   
C91      C      0.472760000000     0.981420000000     0.777120000000     0.0623289  
C92      C      0.505320000000     0.999000000000     0.828260000000    -0.0298621  
C93      C      0.471090000000     0.985970000000     0.703370000000     0.0629352  
C94      C      0.475070000000     0.958390000000     0.645250000000    -0.0341784  
C95      C      0.492720000000     0.961360000000     0.720160000000    -0.054889   
C96      C      0.467510000000     0.965410000000     0.606410000000     0.0156045  
C97      C      0.487660000000     0.028070000000     0.617140000000    -0.00466638 
C98      C      0.452360000000     0.007080000000     0.760360000000    -0.0549183  
C99      C      0.429650000000     0.969250000000     0.600830000000     0.0527531  
C100     C      0.508250000000     0.046680000000     0.334820000000    -0.0308013  
C101     C      0.536940000000     0.004950000000     0.149240000000    -0.0299338  
C102     C      0.467460000000     0.011500000000     0.118600000000    -0.00640714 
C103     C      0.529960000000     0.988940000000     0.113400000000    -0.00719049 
C104     C      0.489020000000     0.994100000000     0.231060000000    -0.0521537  
C105     C      0.540940000000     0.039420000000     0.254980000000    -0.0530109  
C106     C      0.509700000000     0.012080000000     0.206800000000     0.0614857  
C107     C      0.477880000000     0.027050000000     0.153980000000    -0.0303034  
C108     C      0.521640000000     0.019850000000     0.279130000000     0.0632289  
C109     C      0.532380000000     0.987820000000     0.333190000000    -0.0339463  
C110     C      0.494340000000     0.998410000000     0.266890000000    -0.0555957  
C111     C      0.547790000000     0.991530000000     0.369930000000     0.0160339  
C112     C      0.523420000000     0.053180000000     0.371320000000    -0.00473144 
C113     C      0.534650000000     0.036190000000     0.219150000000    -0.0546144  
C114     C      0.585360000000     0.999390000000     0.367820000000     0.0510544  
C115     C      0.991970000000     0.447170000000     0.829490000000    -0.0291468  
C116     C      0.037280000000     0.484350000000     0.645840000000    -0.0305652  
C117     C      0.985110000000     0.443600000000     0.608260000000    -0.00684469 
C118     C      0.044900000000     0.471420000000     0.608670000000    -0.00638979 
C119     C      0.029180000000     0.447120000000     0.724190000000    -0.0529048  
C120     C      0.982450000000     0.497380000000     0.748920000000    -0.0529416  
C121     C      0.010060000000     0.467210000000     0.700320000000     0.0616537  
C122     C      0.979690000000     0.457200000000     0.645300000000    -0.0300106  
C123     C      0.000140000000     0.476030000000     0.772800000000     0.0632665  
C124     C      0.014460000000     0.506190000000     0.826710000000    -0.0339524  
C125     C      0.024860000000     0.451850000000     0.760140000000    -0.0556224  
C126     C      0.998230000000     0.516030000000     0.862060000000     0.0160632  
C127     C      0.975430000000     0.453250000000     0.865320000000    -0.00677611 
C128     C      0.987780000000     0.493580000000     0.713040000000    -0.0546468  
C129     C      0.966300000000     0.536780000000     0.856600000000     0.0573773  
C130     C      0.968690000000     0.536730000000     0.144760000000    -0.0297602  
C131     C      0.009900000000     0.498770000000     0.325940000000    -0.030222   
C132     C      0.955290000000     0.524320000000     0.372420000000    -0.00797339 
C133     C      0.019460000000     0.510730000000     0.362780000000    -0.00634155 
C134     C      0.995360000000     0.536420000000     0.253580000000    -0.0528778  
C135     C      0.949360000000     0.487640000000     0.225030000000    -0.0532144  
C136     C      0.975330000000     0.515480000000     0.275970000000     0.0615696  
C137     C      0.948790000000     0.512950000000     0.334630000000    -0.0296935  
C138     C      0.969010000000     0.508940000000     0.202650000000     0.0627062  
C139     C      0.987340000000     0.476620000000     0.151430000000    -0.034359   
C140     C      0.992920000000     0.532760000000     0.217360000000    -0.0557759  
C141     C      0.975400000000     0.466970000000     0.114350000000     0.0164424  
C142     C      0.956580000000     0.530520000000     0.107230000000    -0.00635223 
C143     C      0.952920000000     0.490240000000     0.261260000000    -0.0545646  
C144     C      0.941630000000     0.448590000000     0.115660000000     0.0549906  
C145     C      0.349320000000     0.033050000000     0.497580000000    -0.0311867  
C146     C      0.168670000000     0.974520000000     0.471390000000    -0.0305358  
C147     C      0.135430000000     0.986890000000     0.538790000000    -0.00532014 
C148     C      0.133450000000     0.957750000000     0.479530000000    -0.00605655 
C149     C      0.250920000000     0.971780000000     0.516320000000    -0.052212   
C150     C      0.269240000000     0.021930000000     0.466570000000    -0.0521373  
C151     C      0.224600000000     0.989300000000     0.497920000000     0.0623613  
C152     C      0.170630000000     0.002910000000     0.528270000000    -0.0312302  
C153     C      0.295540000000     0.003010000000     0.483560000000     0.0633931  
C154     C      0.351570000000     0.976560000000     0.468420000000    -0.0343768  
C155     C      0.286100000000     0.978940000000     0.509760000000    -0.0554067  
C156     C      0.387350000000     0.984660000000     0.452310000000     0.0164203  
C157     C      0.384490000000     0.043930000000     0.481890000000    -0.00434257 
C158     C      0.234060000000     0.015680000000     0.474060000000    -0.054897   
C159     C      0.383250000000     0.995380000000     0.415610000000     0.0510952  
C160     C      0.667420000000     0.036160000000     0.514170000000    -0.0300612  
C161     C      0.848890000000     0.984940000000     0.476170000000    -0.0305877  
C162     C      0.889290000000     0.023310000000     0.528110000000    -0.00718191 
C163     C      0.886570000000     0.995700000000     0.467850000000    -0.00626989 
C164     C      0.774010000000     0.026660000000     0.481460000000    -0.0524577  
C165     C      0.744140000000     0.982170000000     0.530950000000    -0.0532435  
C166     C      0.795750000000     0.006550000000     0.502970000000     0.0614164  
C167     C      0.851570000000     0.011700000000     0.533580000000    -0.0299961  
C168     C      0.722450000000     0.003510000000     0.510610000000     0.0632016  
C169     C      0.667830000000     0.975820000000     0.494620000000    -0.0349187  
C170     C      0.737690000000     0.024740000000     0.484670000000    -0.0555818  
C171     C      0.630480000000     0.969610000000     0.507970000000     0.017066   
C172     C      0.630040000000     0.033080000000     0.527870000000    -0.00571805 
C173     C      0.780390000000     0.983070000000     0.526800000000    -0.0545585  
C174     C      0.631290000000     0.951240000000     0.541750000000     0.0547503  
C175     C      0.027130000000     0.648850000000     0.510280000000    -0.0296561  
C176     C      0.981800000000     0.832370000000     0.548690000000    -0.0304342  
C177     C      0.018770000000     0.862730000000     0.489310000000    -0.00712188 
C178     C      0.996530000000     0.869580000000     0.551700000000    -0.00642419 
C179     C      0.019150000000     0.753250000000     0.545700000000    -0.0530563  
C180     C      0.967870000000     0.723050000000     0.503500000000    -0.0530709  
C181     C      0.996770000000     0.774780000000     0.526350000000     0.0615849  
C182     C      0.003180000000     0.826160000000     0.489450000000    -0.0297742  
C183     C      0.992120000000     0.701540000000     0.520490000000     0.0626768  
C184     C      0.969140000000     0.643870000000     0.534800000000    -0.0343062  
C185     C      0.016490000000     0.716900000000     0.543430000000    -0.0555664  
C186     C      0.962890000000     0.608060000000     0.517620000000     0.0162319  
C187     C      0.024820000000     0.613220000000     0.492560000000    -0.00631351 
C188     C      0.969630000000     0.759340000000     0.506890000000    -0.0548205  
C189     C      0.939850000000     0.612060000000     0.487050000000     0.0560487  
C190     C      0.007200000000     0.152560000000     0.509200000000    -0.0301706  
C191     C      0.041800000000     0.333200000000     0.460260000000    -0.0301319  
C192     C      0.972310000000     0.363170000000     0.468470000000    -0.00648832 
C193     C      0.034520000000     0.370220000000     0.447250000000    -0.00716194 
C194     C      0.994910000000     0.251320000000     0.445460000000    -0.0531331  
C195     C      0.043070000000     0.226400000000     0.494190000000    -0.0527151  
C196     C      0.014960000000     0.275180000000     0.464670000000     0.0616205  
C197     C      0.982240000000     0.326620000000     0.481310000000    -0.0303035  
C198     C      0.023630000000     0.202520000000     0.474400000000     0.0625029  
C199     C      0.025470000000     0.143320000000     0.449310000000    -0.0337744  
C200     C      0.998580000000     0.215390000000     0.450670000000    -0.0554626  
C201     C      0.038430000000     0.106170000000     0.457180000000     0.0152342  
C202     C      0.020390000000     0.116610000000     0.520490000000    -0.00537312 
C203     C      0.038350000000     0.262330000000     0.490030000000    -0.0552512  
C204     C      0.076810000000     0.105790000000     0.459430000000     0.0526416  
Cu1      Cu     0.011550000000     0.984670000000     0.471950000000     0.846233   
Cu2      Cu     0.009900000000     0.993580000000     0.535810000000     0.839943   
Cu3      Cu     0.968150000000     0.485980000000     0.491630000000     0.843184   
Cu4      Cu     0.032100000000     0.489740000000     0.484660000000     0.843376   
Cu5      Cu     0.507650000000     0.976290000000     0.487780000000     0.847943   
Cu6      Cu     0.509040000000     0.040220000000     0.495640000000     0.843335   
Cu7      Cu     0.521510000000     0.996400000000     0.989480000000     0.846172   
Cu8      Cu     0.457400000000     0.001120000000     0.994530000000     0.84409    
Cu9      Cu     0.984780000000     0.523410000000     0.985670000000     0.847645   
Cu10     Cu     0.982170000000     0.459270000000     0.989920000000     0.845503   
Cu11     Cu     0.486560000000     0.496960000000     0.049030000000     0.838736   
Cu12     Cu     0.485330000000     0.500200000000     0.984800000000     0.843726   
H1       H      0.689260000000     0.476460000000     0.964860000000     0.0424329  
H2       H      0.812910000000     0.552790000000     0.960580000000     0.037736   
H3       H      0.804970000000     0.451550000000     0.005170000000     0.0411096  
H4       H      0.606470000000     0.570060000000     0.995200000000     0.0374371  
H5       H      0.857920000000     0.518550000000     0.932810000000     0.045804   
H6       H      0.663580000000     0.500210000000     0.058630000000     0.0355685  
H7       H      0.652070000000     0.546230000000     0.958390000000     0.0364096  
H8       H      0.598750000000     0.496020000000     0.064830000000     0.0409767  
H9       H      0.870600000000     0.447020000000     0.006280000000     0.0427256  
H10      H      0.751170000000     0.468040000000     0.951780000000     0.0497875  
H11      H      0.878300000000     0.548930000000     0.961920000000     0.045409   
H12      H      0.715890000000     0.556030000000     0.040030000000     0.0453409  
H13      H      0.830910000000     0.544640000000     0.003440000000     0.0385702  
H14      H      0.586990000000     0.541980000000     0.963210000000     0.0420644  
H15      H      0.643690000000     0.475170000000     0.024000000000     0.0398905  
H16      H      0.636410000000     0.502240000000     0.965230000000     0.0390926  
H17      H      0.777910000000     0.545270000000     0.029340000000     0.0423615  
H18      H      0.826140000000     0.486020000000     0.028870000000     0.0422472  
H19      H      0.614380000000     0.540230000000     0.061510000000     0.0386048  
H20      H      0.272640000000     0.523880000000     0.968410000000     0.0460152  
H21      H      0.157530000000     0.430960000000     0.984700000000     0.0356766  
H22      H      0.160470000000     0.538410000000     0.011640000000     0.0395193  
H23      H      0.364580000000     0.519100000000     0.051840000000     0.0397628  
H24      H      0.108400000000     0.454460000000     0.954170000000     0.0420835  
H25      H      0.314170000000     0.464260000000     0.961360000000     0.0351593  
H26      H      0.309590000000     0.496340000000     0.067120000000     0.0349778  
H27      H      0.379040000000     0.453010000000     0.968430000000     0.0387722  
H28      H      0.094650000000     0.539120000000     0.014710000000     0.0386862  
H29      H      0.209230000000     0.522730000000     0.959230000000     0.0498525  
H30      H      0.091650000000     0.431530000000     0.991260000000     0.0419774  
H31      H      0.262060000000     0.445740000000     0.048970000000     0.0405823  
H32      H      0.141430000000     0.445710000000     0.026510000000     0.0365633  
H33      H      0.374660000000     0.478640000000     0.072620000000     0.0402585  
H34      H      0.325180000000     0.434850000000     0.996320000000     0.0380753  
H35      H      0.321350000000     0.452260000000     0.055520000000     0.035389   
H36      H      0.199030000000     0.446880000000     0.042000000000     0.040904   
H37      H      0.142300000000     0.506780000000     0.040980000000     0.0395144  
H38      H      0.365940000000     0.497840000000     0.967620000000     0.0416213  
H39      H      0.503470000000     0.706630000000     0.975080000000     0.0423159  
H40      H      0.421330000000     0.828060000000     0.992480000000     0.0362099  
H41      H      0.529750000000     0.819640000000     0.014020000000     0.0392617  
H42      H      0.414200000000     0.619600000000     0.002710000000     0.0376027  
H43      H      0.446970000000     0.874290000000     0.958970000000     0.0418541  
H44      H      0.483510000000     0.673420000000     0.069700000000     0.0350008  
H45      H      0.437370000000     0.667830000000     0.968990000000     0.0362916  
H46      H      0.488660000000     0.608330000000     0.071540000000     0.0406323  
H47      H      0.534230000000     0.885500000000     0.015190000000     0.0381403  
H48      H      0.508970000000     0.769420000000     0.965740000000     0.0493607  
H49      H      0.425660000000     0.893630000000     0.995780000000     0.0420204  
H50      H      0.429070000000     0.725350000000     0.057630000000     0.0447865  
H51      H      0.439030000000     0.844820000000     0.032900000000     0.0372476  
H52      H      0.442550000000     0.602640000000     0.969550000000     0.0419794  
H53      H      0.508660000000     0.656250000000     0.033740000000     0.0397766  
H54      H      0.481590000000     0.652330000000     0.974850000000     0.0390776  
H55      H      0.437260000000     0.788200000000     0.050670000000     0.0414917  
H56      H      0.500880000000     0.840310000000     0.044560000000     0.0396704  
H57      H      0.444220000000     0.623550000000     0.069560000000     0.0386078  
H58      H      0.471360000000     0.290590000000     0.960210000000     0.0420314  
H59      H      0.555360000000     0.168910000000     0.967400000000     0.036348   
H60      H      0.450690000000     0.178380000000     0.002780000000     0.0391942  
H61      H      0.556820000000     0.381870000000     0.985970000000     0.037686   
H62      H      0.524860000000     0.121600000000     0.939490000000     0.0420729  
H63      H      0.496050000000     0.319750000000     0.055070000000     0.0348109  
H64      H      0.533710000000     0.334070000000     0.951760000000     0.0360353  
H65      H      0.487370000000     0.384100000000     0.061390000000     0.040731   
H66      H      0.446340000000     0.112960000000     0.006990000000     0.0387757  
H67      H      0.466820000000     0.227860000000     0.950090000000     0.049137   
H68      H      0.551670000000     0.103470000000     0.973220000000     0.0421133  
H69      H      0.552170000000     0.272460000000     0.036640000000     0.0448283  
H70      H      0.543440000000     0.153580000000     0.010420000000     0.0374349  
H71      H      0.524310000000     0.398720000000     0.956840000000     0.0420495  
H72      H      0.467420000000     0.337490000000     0.022140000000     0.0395881  
H73      H      0.489310000000     0.346310000000     0.962080000000     0.0385193  
H74      H      0.545250000000     0.209550000000     0.028930000000     0.0414748  
H75      H      0.483300000000     0.158840000000     0.030170000000     0.0396419  
H76      H      0.532310000000     0.371720000000     0.055560000000     0.0387934  
H77      H      0.437360000000     0.025910000000     0.775090000000     0.0428304  
H78      H      0.493450000000     0.041130000000     0.671390000000     0.0357304  
H79      H      0.457390000000     0.937520000000     0.655180000000     0.0413105  
H80      H      0.523110000000     0.960720000000     0.865730000000     0.0440031  
H81      H      0.462240000000     0.042110000000     0.616570000000     0.0430602  
H82      H      0.420900000000     0.973020000000     0.822740000000     0.0369401  
H83      H      0.529230000000     0.993900000000     0.812500000000     0.0359892  
H84      H      0.424630000000     0.987220000000     0.887210000000     0.0435866  
H85      H      0.476060000000     0.942090000000     0.591370000000     0.0415771  
H86      H      0.434950000000     0.028390000000     0.711550000000     0.0469873  
H87      H      0.508200000000     0.046640000000     0.608380000000     0.041341   
H88      H      0.509400000000     0.939420000000     0.768960000000     0.0468084  
H89      H      0.522970000000     0.007560000000     0.656690000000     0.0409948  
H90      H      0.533430000000     0.005140000000     0.876680000000     0.0420254  
H91      H      0.437840000000     0.015850000000     0.833000000000     0.0396604  
H92      H      0.499830000000     0.027560000000     0.827220000000     0.040726   
H93      H      0.509540000000     0.944100000000     0.705480000000     0.0432062  
H94      H      0.502340000000     0.948530000000     0.647300000000     0.0404284  
H95      H      0.446330000000     0.947900000000     0.874240000000     0.0403036  
H96      H      0.550140000000     0.051680000000     0.201340000000     0.0417083  
H97      H      0.506990000000     0.072120000000     0.320810000000     0.0368307  
H98      H      0.548520000000     0.969280000000     0.317590000000     0.041119   
H99      H      0.452770000000     0.986870000000     0.123170000000     0.0403097  
H100     H      0.548530000000     0.067500000000     0.368590000000     0.0433986  
H101     H      0.557540000000     0.989300000000     0.162490000000     0.0361715  
H102     H      0.454150000000     0.028160000000     0.170740000000     0.0353346  
H103     H      0.553570000000     0.992670000000     0.096910000000     0.0422598  
H104     H      0.545230000000     0.965880000000     0.383250000000     0.0412504  
H105     H      0.561310000000     0.056840000000     0.264000000000     0.0475389  
H106     H      0.505050000000     0.070090000000     0.386150000000     0.0420548  
H107     H      0.468980000000     0.976280000000     0.222080000000     0.0456296  
H108     H      0.481200000000     0.036230000000     0.337130000000     0.0431838  
H109     H      0.449580000000     0.030050000000     0.105190000000     0.0401163  
H110     H      0.546900000000     0.032000000000     0.145440000000     0.0377293  
H111     H      0.487690000000     0.054200000000     0.150450000000     0.0389817  
H112     H      0.477830000000     0.984130000000     0.284800000000     0.043995   
H113     H      0.505850000000     0.976280000000     0.335910000000     0.0413437  
H114     H      0.526190000000     0.960330000000     0.116630000000     0.0384416  
H115     H      0.973750000000     0.510590000000     0.695400000000     0.0426447  
H116     H      0.976410000000     0.427040000000     0.815430000000     0.0373531  
H117     H      0.016890000000     0.530060000000     0.810220000000     0.0407007  
H118     H      0.994160000000     0.416060000000     0.609880000000     0.0370216  
H119     H      0.946830000000     0.456880000000     0.861800000000     0.0455587  
H120     H      0.062460000000     0.486040000000     0.660270000000     0.0354865  
H121     H      0.962150000000     0.438830000000     0.659450000000     0.0364499  
H122     H      0.061040000000     0.491300000000     0.594960000000     0.0403593  
H123     H      0.017270000000     0.532830000000     0.876190000000     0.042631   
H124     H      0.964180000000     0.516860000000     0.758240000000     0.0500789  
H125     H      0.979100000000     0.429290000000     0.881310000000     0.0442646  
H126     H      0.047170000000     0.427410000000     0.714830000000     0.0451892  
H127     H      0.018890000000     0.436910000000     0.833390000000     0.0376674  
H128     H      0.959630000000     0.443560000000     0.594380000000     0.0420202  
H129     H      0.025610000000     0.510980000000     0.644760000000     0.0397368  
H130     H      0.966560000000     0.483060000000     0.643630000000     0.03976    
H131     H      0.040100000000     0.435910000000     0.777760000000     0.0420513  
H132     H      0.041340000000     0.495810000000     0.830810000000     0.0417873  
H133     H      0.060290000000     0.446850000000     0.610310000000     0.0387158  
H134     H      0.937910000000     0.472650000000     0.277430000000     0.0421616  
H135     H      0.952550000000     0.557960000000     0.156300000000     0.0363372  
H136     H      0.986140000000     0.452960000000     0.168350000000     0.0392175  
H137     H      0.956540000000     0.553320000000     0.373210000000     0.0421858  
H138     H      0.927670000000     0.527710000000     0.107210000000     0.0418896  
H139     H      0.033140000000     0.502720000000     0.308920000000     0.034475   
H140     H      0.926260000000     0.528000000000     0.324120000000     0.0370461  
H141     H      0.040720000000     0.493610000000     0.372710000000     0.0407896  
H142     H      0.994960000000     0.448570000000     0.103250000000     0.0387355  
H143     H      0.931510000000     0.468540000000     0.214210000000     0.0490799  
H144     H      0.962920000000     0.554080000000     0.091500000000     0.0423462  
H145     H      0.013440000000     0.555310000000     0.264370000000     0.044724   
H146     H      0.996390000000     0.545500000000     0.144000000000     0.0374151  
H147     H      0.932640000000     0.516180000000     0.388660000000     0.0447887  
H148     H      0.003520000000     0.470380000000     0.326020000000     0.0395926  
H149     H      0.941840000000     0.484730000000     0.334760000000     0.0383457  
H150     H      0.009540000000     0.548840000000     0.201190000000     0.0413795  
H151     H      0.015110000000     0.485300000000     0.150780000000     0.0396395  
H152     H      0.029760000000     0.537850000000     0.361450000000     0.0395896  
H153     H      0.214440000000     0.030770000000     0.460480000000     0.0451006  
H154     H      0.333340000000     0.057000000000     0.501580000000     0.0375167  
H155     H      0.336950000000     0.958240000000     0.451170000000     0.0413267  
H156     H      0.140380000000     0.963100000000     0.554690000000     0.0391263  
H157     H      0.379560000000     0.059990000000     0.458200000000     0.0432078  
H158     H      0.183200000000     0.957150000000     0.453160000000     0.0368468  
H159     H      0.186540000000     0.006600000000     0.552320000000     0.0368839  
H160     H      0.117920000000     0.956200000000     0.455060000000     0.0425099  
H161     H      0.402820000000     0.960100000000     0.452310000000     0.0415225  
H162     H      0.276080000000     0.041300000000     0.447130000000     0.0485923  
H163     H      0.398450000000     0.060550000000     0.501190000000     0.0426113  
H164     H      0.244080000000     0.952160000000     0.535510000000     0.0464136  
H165     H      0.353560000000     0.020520000000     0.523500000000     0.0451627  
H166     H      0.121080000000     0.005960000000     0.555350000000     0.0418626  
H167     H      0.163840000000     0.999890000000     0.458080000000     0.0423701  
H168     H      0.166340000000     0.028990000000     0.516110000000     0.0440647  
H169     H      0.305720000000     0.965000000000     0.524520000000     0.0454972  
H170     H      0.356130000000     0.963060000000     0.493750000000     0.0428722  
H171     H      0.138130000000     0.930550000000     0.488560000000     0.0370838  
H172     H      0.796210000000     0.966040000000     0.542800000000     0.0422938  
H173     H      0.681530000000     0.055950000000     0.530100000000     0.0366016  
H174     H      0.682530000000     0.950700000000     0.495160000000     0.040838   
H175     H      0.889290000000     0.051350000000     0.520520000000     0.0375893  
H176     H      0.631090000000     0.029110000000     0.556620000000     0.0418028  
H177     H      0.834040000000     0.983780000000     0.451200000000     0.0358538  
H178     H      0.838620000000     0.030510000000     0.551560000000     0.0359172  
H179     H      0.899070000000     0.974610000000     0.452260000000     0.0403933  
H180     H      0.617160000000     0.952240000000     0.488880000000     0.0408993  
H181     H      0.732830000000     0.964830000000     0.550220000000     0.0494101  
H182     H      0.616320000000     0.058210000000     0.523150000000     0.0425625  
H183     H      0.785350000000     0.044090000000     0.462290000000     0.0455794  
H184     H      0.666290000000     0.045520000000     0.486670000000     0.0400955  
H185     H      0.903360000000     0.021220000000     0.553410000000     0.0420141  
H186     H      0.848570000000     0.958430000000     0.488140000000     0.0396619  
H187     H      0.851840000000     0.985540000000     0.546230000000     0.0385205  
H188     H      0.721820000000     0.040440000000     0.467390000000     0.0435022  
H189     H      0.666910000000     0.984700000000     0.466920000000     0.0440935  
H190     H      0.886060000000     0.019700000000     0.451510000000     0.0396066  
H191     H      0.950990000000     0.775190000000     0.492790000000     0.0423079  
H192     H      0.044950000000     0.665700000000     0.494670000000     0.0359506  
H193     H      0.943650000000     0.657380000000     0.538690000000     0.0396634  
H194     H      0.047400000000     0.860610000000     0.493760000000     0.0379757  
H195     H      0.020280000000     0.617280000000     0.464150000000     0.0418451  
H196     H      0.981570000000     0.820450000000     0.575200000000     0.035533   
H197     H      0.018800000000     0.809450000000     0.471500000000     0.0360555  
H198     H      0.977790000000     0.885960000000     0.566690000000     0.0396456  
H199     H      0.949060000000     0.591180000000     0.536810000000     0.0381492  
H200     H      0.948270000000     0.711640000000     0.486600000000     0.0494675  
H201     H      0.050550000000     0.600040000000     0.495290000000     0.0415918  
H202     H      0.039560000000     0.764720000000     0.561560000000     0.0453163  
H203     H      0.038640000000     0.645340000000     0.536750000000     0.0367152  
H204     H      0.015020000000     0.874130000000     0.462870000000     0.0421857  
H205     H      0.954400000000     0.833310000000     0.538960000000     0.0389481  
H206     H      0.976010000000     0.827680000000     0.479240000000     0.0382463  
H207     H      0.034690000000     0.701110000000     0.558160000000     0.0415292  
H208     H      0.981010000000     0.640220000000     0.561110000000     0.0394651  
H209     H      0.021350000000     0.868620000000     0.566750000000     0.0403507  
H210     H      0.053270000000     0.279760000000     0.506450000000     0.0417841  
H211     H      0.008800000000     0.170320000000     0.532170000000     0.0349604  
H212     H      0.040540000000     0.154540000000     0.427070000000     0.0404961  
H213     H      0.959460000000     0.360790000000     0.442530000000     0.0390783  
H214     H      0.046460000000     0.119660000000     0.532910000000     0.0431261  
H215     H      0.062400000000     0.321340000000     0.443530000000     0.0360298  
H216     H      0.958450000000     0.309940000000     0.480410000000     0.0347644  
H217     H      0.058370000000     0.386320000000     0.450980000000     0.0417046  
H218     H      0.031000000000     0.089310000000     0.434740000000     0.0403305  
H219     H      0.061710000000     0.217020000000     0.513290000000     0.0465987  
H220     H      0.002210000000     0.106080000000     0.540560000000     0.0402439  
H221     H      0.976060000000     0.260720000000     0.426580000000     0.0448818  
H222     H      0.979310000000     0.150840000000     0.501080000000     0.0387415  
H223     H      0.953070000000     0.374560000000     0.487010000000     0.0406497  
H224     H      0.051840000000     0.335050000000     0.487470000000     0.0385879  
H225     H      0.991320000000     0.327960000000     0.508930000000     0.0393555  
H226     H      0.982060000000     0.197970000000     0.435840000000     0.0415105  
H227     H      0.997660000000     0.141450000000     0.441060000000     0.0382134  
H228     H      0.029210000000     0.369030000000     0.418720000000     0.0374746  
N1       N      0.878770000000     0.494830000000     0.978110000000    -0.167309   
N2       N      0.805420000000     0.500960000000     0.979410000000    -0.1105     
N3       N      0.661520000000     0.525960000000     0.009360000000    -0.113241   
N4       N      0.588370000000     0.522370000000     0.016180000000    -0.167679   
N5       N      0.846930000000     0.423560000000     0.925710000000    -0.105818   
N6       N      0.088500000000     0.487680000000     0.993540000000    -0.1678     
N7       N      0.161970000000     0.485710000000     0.993320000000    -0.110478   
N8       N      0.309960000000     0.486060000000     0.012500000000    -0.112241   
N9       N      0.382480000000     0.479930000000     0.017240000000    -0.166712   
N10      N      0.115030000000     0.552670000000     0.931000000000    -0.106919   
N11      N      0.482020000000     0.893870000000     0.996860000000    -0.168086   
N12      N      0.476110000000     0.820580000000     0.998770000000    -0.110376   
N13      N      0.457560000000     0.674210000000     0.020490000000    -0.113183   
N14      N      0.462120000000     0.600840000000     0.022500000000    -0.167611   
N15      N      0.541750000000     0.862420000000     0.931430000000    -0.106542   
N16      N      0.496140000000     0.103490000000     0.983030000000    -0.168002   
N17      N      0.501990000000     0.176900000000     0.980930000000    -0.110504   
N18      N      0.518340000000     0.323500000000     0.004210000000    -0.113131   
N19      N      0.510070000000     0.396320000000     0.011400000000    -0.167331   
N20      N      0.429110000000     0.132340000000     0.923740000000    -0.106868   
N21      N      0.485410000000     0.997330000000     0.593900000000    -0.167639   
N22      N      0.470600000000     0.990620000000     0.665830000000    -0.110192   
N23      N      0.475660000000     0.978850000000     0.814750000000    -0.112185   
N24      N      0.480850000000     0.988820000000     0.887530000000    -0.165898   
N25      N      0.394820000000     0.972930000000     0.595550000000    -0.108432   
N26      N      0.529950000000     0.019740000000     0.389360000000    -0.167974   
N27      N      0.530730000000     0.022120000000     0.315720000000    -0.11044    
N28      N      0.504640000000     0.004850000000     0.170050000000    -0.112773   
N29      N      0.498330000000     0.003630000000     0.096820000000    -0.16711    
N30      N      0.619960000000     0.006710000000     0.365940000000    -0.10755    
N31      N      0.989650000000     0.484600000000     0.882910000000    -0.166916   
N32      N      0.992380000000     0.480000000000     0.809560000000    -0.110283   
N33      N      0.013540000000     0.459820000000     0.663450000000    -0.113276   
N34      N      0.011990000000     0.464300000000     0.590000000000    -0.167637   
N35      N      0.936840000000     0.555780000000     0.851590000000    -0.105856   
N36      N      0.972010000000     0.498430000000     0.092190000000    -0.168061   
N37      N      0.964880000000     0.504460000000     0.165320000000    -0.110428   
N38      N      0.980170000000     0.519410000000     0.313290000000    -0.112763   
N39      N      0.988610000000     0.510280000000     0.385900000000    -0.166714   
N40      N      0.910480000000     0.431780000000     0.116850000000    -0.107063   
N41      N      0.405050000000     0.012850000000     0.471910000000    -0.167668   
N42      N      0.331460000000     0.009010000000     0.473590000000    -0.110194   
N43      N      0.188670000000     0.979370000000     0.503910000000    -0.112796   
N44      N      0.115220000000     0.976980000000     0.507530000000    -0.16694    
N45      N      0.379500000000     0.005340000000     0.381830000000    -0.107567   
N46      N      0.611590000000     0.003080000000     0.512010000000    -0.167492   
N47      N      0.685160000000     0.002100000000     0.516540000000    -0.110337   
N48      N      0.833170000000     0.010730000000     0.499830000000    -0.113005   
N49      N      0.906420000000     0.003060000000     0.500070000000    -0.167215   
N50      N      0.632040000000     0.934420000000     0.572900000000    -0.106427   
N51      N      0.996050000000     0.591470000000     0.506530000000    -0.167728   
N52      N      0.992200000000     0.664640000000     0.512350000000    -0.110423   
N53      N      0.003940000000     0.811830000000     0.525080000000    -0.112984   
N54      N      0.003700000000     0.884960000000     0.517040000000    -0.166961   
N55      N      0.918770000000     0.615730000000     0.458830000000    -0.107209   
N56      N      0.023700000000     0.092750000000     0.490320000000    -0.1681     
N57      N      0.029010000000     0.165590000000     0.480500000000    -0.110468   
N58      N      0.009620000000     0.312120000000     0.458680000000    -0.113143   
N59      N      0.003660000000     0.385260000000     0.464830000000    -0.167409   
N60      N      0.112160000000     0.105340000000     0.461630000000    -0.107691   
O1       O      0.017790000000     0.037290000000     0.468200000000    -0.397145   
O2       O      0.006410000000     0.933130000000     0.481840000000    -0.400634   
O3       O      0.958620000000     0.990530000000     0.473260000000    -0.396952   
O4       O      0.063870000000     0.978960000000     0.476960000000    -0.398182   
O5       O      0.062790000000     0.987920000000     0.534490000000    -0.396159   
O6       O      0.957600000000     0.999400000000     0.530790000000    -0.399155   
O7       O      0.004000000000     0.940660000000     0.539540000000    -0.395153   
O8       O      0.015500000000     0.045250000000     0.525830000000    -0.397987   
O9       O      0.972980000000     0.434680000000     0.479070000000    -0.397909   
O10      O      0.969610000000     0.537660000000     0.503970000000    -0.393476   
O11      O      0.965280000000     0.498840000000     0.440040000000    -0.394693   
O12      O      0.977330000000     0.473310000000     0.542140000000    -0.399262   
O13      O      0.034900000000     0.480200000000     0.536940000000    -0.397564   
O14      O      0.023100000000     0.498900000000     0.433400000000    -0.39945    
O15      O      0.026870000000     0.541550000000     0.494320000000    -0.398961   
O16      O      0.030940000000     0.437700000000     0.474580000000    -0.398657   
O17      O      0.559260000000     0.976740000000     0.499620000000    -0.39575    
O18      O      0.456300000000     0.982110000000     0.475950000000    -0.39718    
O19      O      0.520350000000     0.985160000000     0.437210000000    -0.39808    
O20      O      0.495080000000     0.973780000000     0.539470000000    -0.394443   
O21      O      0.500210000000     0.031270000000     0.546950000000    -0.399043   
O22      O      0.517540000000     0.042990000000     0.443210000000    -0.39641    
O23      O      0.456700000000     0.039250000000     0.486950000000    -0.396771   
O24      O      0.561150000000     0.034710000000     0.504390000000    -0.396828   
O25      O      0.522780000000     0.999610000000     0.042320000000    -0.39933    
O26      O      0.514060000000     0.993250000000     0.937130000000    -0.396825   
O27      O      0.521870000000     0.049340000000     0.985480000000    -0.398067   
O28      O      0.514820000000     0.943930000000     0.993760000000    -0.395079   
O29      O      0.456900000000     0.948250000000     0.997610000000    -0.399127   
O30      O      0.464050000000     0.053520000000     0.990660000000    -0.396436   
O31      O      0.456120000000     0.996690000000     0.941610000000    -0.395367   
O32      O      0.464990000000     0.004770000000     0.047000000000    -0.397315   
O33      O      0.037100000000     0.518500000000     0.992780000000    -0.39536    
O34      O      0.932250000000     0.521870000000     0.978680000000    -0.396401   
O35      O      0.977410000000     0.523910000000     0.038190000000    -0.398597   
O36      O      0.991520000000     0.516590000000     0.933540000000    -0.393242   
O37      O      0.983650000000     0.459030000000     0.936860000000    -0.395896   
O38      O      0.980610000000     0.465980000000     0.042540000000    -0.395175   
O39      O      0.929450000000     0.464510000000     0.988060000000    -0.393958   
O40      O      0.035160000000     0.460360000000     0.991170000000    -0.398251   
O41      O      0.495020000000     0.444920000000     0.043020000000    -0.397512   
O42      O      0.478060000000     0.549350000000     0.048600000000    -0.397309   
O43      O      0.434160000000     0.488900000000     0.046310000000    -0.397133   
O44      O      0.538770000000     0.505650000000     0.045270000000    -0.397513   
O45      O      0.536230000000     0.514650000000     0.987820000000    -0.398924   
O46      O      0.434470000000     0.485830000000     0.988160000000    -0.39841    
O47      O      0.470770000000     0.550780000000     0.990860000000    -0.39878    
O48      O      0.499990000000     0.449240000000     0.985190000000    -0.398461   


