data_structure

_audit_creation_method RASPA-1.0
_audit_creation_date 2023-6-5
_audit_author_name 'Poobodin Mano'

_cell_length_a    61.9522
_cell_length_b    62.2026
_cell_length_c    37.8129
_cell_angle_alpha 89.9466
_cell_angle_beta  90.0541
_cell_angle_gamma 119.949
_cell_volume      126258

_symmetry_cell_setting          triclinic
_symmetry_space_group_name_Hall 'P 1'
_symmetry_space_group_name_H-M  'P 1'
_symmetry_Int_Tables_number     1

_symmetry_equiv_pos_as_xyz 'x,y,z'

loop_
_atom_site_label
_atom_site_type_symbol
_atom_site_fract_x
_atom_site_fract_y
_atom_site_fract_z
_atom_site_charge
C1       C      0.888030000000     0.692620000000     0.674920000000     0.409052   
C2       C      0.794290000000     0.639430000000     0.629190000000     0.410072   
C3       C      0.824920000000     0.659220000000     0.718690000000     0.411563   
C4       C      0.857550000000     0.672710000000     0.585620000000     0.408761   
C5       C      0.126780000000     0.825490000000     0.822660000000     0.398972   
C6       C      0.220430000000     0.877840000000     0.868980000000     0.409856   
C7       C      0.190180000000     0.859810000000     0.779100000000     0.400248   
C8       C      0.157440000000     0.843960000000     0.912240000000     0.41219    
C9       C      0.470360000000     0.986150000000     0.962330000000     0.398127   
C10      C      0.566090000000     0.012340000000     0.974400000000     0.400657   
C11      C      0.519940000000     0.994030000000     0.899200000000     0.399268   
C12      C      0.516600000000     0.004600000000     0.038510000000     0.399103   
C13      C      0.210040000000     0.366010000000     0.338750000000     0.399662   
C14      C      0.115030000000     0.333510000000     0.305430000000     0.39903    
C15      C      0.151870000000     0.347480000000     0.390260000000     0.399123   
C16      C      0.173530000000     0.352020000000     0.252930000000     0.410921   
C17      C      0.792950000000     0.129190000000     0.134690000000     0.408693   
C18      C      0.883350000000     0.207280000000     0.155980000000     0.410807   
C19      C      0.842180000000     0.177290000000     0.075940000000     0.398232   
C20      C      0.833280000000     0.158880000000     0.214610000000     0.400032   
C21      C      0.552660000000     0.510690000000     0.490970000000     0.401203   
C22      C      0.457520000000     0.465320000000     0.450450000000     0.409961   
C23      C      0.490580000000     0.478440000000     0.538200000000     0.40293    
C24      C      0.519140000000     0.497380000000     0.403720000000     0.413565   
C25      C      0.170690000000     0.363800000000     0.833130000000     0.400235   
C26      C      0.228280000000     0.324160000000     0.808590000000     0.410392   
C27      C      0.207950000000     0.344630000000     0.890390000000     0.399144   
C28      C      0.190730000000     0.343330000000     0.751820000000     0.408784   
C29      C      0.345010000000     0.211530000000     0.642210000000     0.399229   
C30      C      0.381140000000     0.153480000000     0.602210000000     0.39866    
C31      C      0.364860000000     0.170750000000     0.689890000000     0.399886   
C32      C      0.361670000000     0.193550000000     0.554840000000     0.398117   
C33      C      0.048500000000     0.472380000000     0.984860000000     0.413219   
C34      C      0.996910000000     0.519620000000     0.973130000000     0.400269   
C35      C      0.023970000000     0.493220000000     0.908640000000     0.399954   
C36      C      0.021560000000     0.499260000000     0.049050000000     0.413111   
C37      C      0.663910000000     0.857240000000     0.296230000000     0.410697   
C38      C      0.705600000000     0.804040000000     0.256230000000     0.410715   
C39      C      0.687680000000     0.819580000000     0.343440000000     0.413398   
C40      C      0.681990000000     0.841120000000     0.208600000000     0.399713   
C41      C      0.825760000000     0.671480000000     0.167530000000     0.398792   
C42      C      0.876450000000     0.625270000000     0.137790000000     0.410832   
C43      C      0.858480000000     0.645870000000     0.221440000000     0.39973    
C44      C      0.843920000000     0.650880000000     0.083470000000     0.398625   
C45      C      0.551340000000     0.982790000000     0.444060000000     0.399297   
C46      C      0.501110000000     0.024670000000     0.496030000000     0.410807   
C47      C      0.515790000000     0.011960000000     0.404390000000     0.411745   
C48      C      0.536520000000     0.995710000000     0.535300000000     0.412227   
C49      C      0.344660000000     0.137640000000     0.146580000000     0.411632   
C50      C      0.379300000000     0.229670000000     0.097800000000     0.410351   
C51      C      0.362930000000     0.199220000000     0.188150000000     0.413792   
C52      C      0.360890000000     0.168320000000     0.056060000000     0.409464   
C53      C      0.498250000000     0.476080000000     0.980700000000     0.399521   
C54      C      0.550410000000     0.573550000000     0.956660000000     0.409973   
C55      C      0.527780000000     0.531910000000     0.037900000000     0.399917   
C56      C      0.520400000000     0.516800000000     0.898850000000     0.414217   
C57      C      0.228800000000     0.922230000000     0.338750000000     0.401016   
C58      C      0.158970000000     0.826820000000     0.346390000000     0.412329   
C59      C      0.186550000000     0.874350000000     0.273400000000     0.399778   
C60      C      0.201350000000     0.874580000000     0.412360000000     0.409183   
C61      C      0.034320000000     0.583100000000     0.472720000000     0.398341   
C62      C      0.996970000000     0.487110000000     0.501750000000     0.410594   
C63      C      0.015360000000     0.526600000000     0.418430000000     0.399489   
C64      C      0.015920000000     0.543680000000     0.556700000000     0.41212    
C65      C      0.882950000000     0.242270000000     0.621750000000     0.399507   
C66      C      0.829680000000     0.150500000000     0.672880000000     0.401099   
C67      C      0.847930000000     0.179290000000     0.581240000000     0.409583   
C68      C      0.865060000000     0.213640000000     0.713690000000     0.409931   
C69      C      0.658090000000     0.802530000000     0.790320000000     0.401019   
C70      C      0.698480000000     0.898700000000     0.759700000000     0.41079    
C71      C      0.677790000000     0.860720000000     0.843390000000     0.414831   
C72      C      0.678960000000     0.841110000000     0.706590000000     0.399698   
C73      C      0.747580000000     0.964880000000     0.745780000000    -0.0328119  
C74      C      0.774700000000     0.089150000000     0.693200000000    -0.0300641  
C75      C      0.828770000000     0.114040000000     0.700300000000    -0.00647757 
C76      C      0.789610000000     0.117420000000     0.696470000000    -0.00653025 
C77      C      0.765490000000     0.041110000000     0.749240000000    -0.0540744  
C78      C      0.751350000000     0.010220000000     0.689870000000    -0.05327    
C79      C      0.772420000000     0.051610000000     0.715480000000     0.0619128  
C80      C      0.812090000000     0.085940000000     0.696940000000    -0.0301154  
C81      C      0.744810000000     0.999690000000     0.723670000000     0.0606944  
C82      C      0.707650000000     0.962760000000     0.743830000000    -0.0821482  
C83      C      0.751790000000     0.015380000000     0.753440000000    -0.0555225  
C84      C      0.693340000000     0.934260000000     0.741270000000     0.168406   
C85      C      0.736010000000     0.936900000000     0.742070000000    -0.00354207 
C86      C      0.765010000000     0.035970000000     0.685670000000    -0.0564748  
C87      C      0.993340000000     0.426260000000     0.523530000000    -0.0330174  
C88      C      0.898300000000     0.305060000000     0.590100000000    -0.0297608  
C89      C      0.922870000000     0.275750000000     0.598440000000    -0.00684865 
C90      C      0.882490000000     0.276840000000     0.590940000000    -0.00694935 
C91      C      0.941940000000     0.346150000000     0.531580000000    -0.0537849  
C92      C      0.954500000000     0.381830000000     0.584520000000    -0.0535077  
C93      C      0.936570000000     0.338640000000     0.566930000000     0.0616434  
C94      C      0.936690000000     0.304160000000     0.597010000000    -0.0300507  
C95      C      0.959160000000     0.389280000000     0.549060000000     0.0608688  
C96      C      0.951510000000     0.419050000000     0.518910000000    -0.0824576  
C97      C      0.953220000000     0.371250000000     0.522600000000    -0.0556967  
C98      C      0.960060000000     0.446800000000     0.516390000000     0.168795   
C99      C      0.004860000000     0.454420000000     0.522620000000    -0.00257775 
C100     C      0.943370000000     0.356740000000     0.593520000000    -0.0562864  
C101     C      0.114190000000     0.771870000000     0.393360000000    -0.034064   
C102     C      0.038570000000     0.641150000000     0.433900000000    -0.0299743  
C103     C      0.070860000000     0.624460000000     0.465480000000    -0.00539008 
C104     C      0.028110000000     0.613260000000     0.439450000000    -0.00729438 
C105     C      0.101710000000     0.690760000000     0.403580000000    -0.0530138  
C106     C      0.075810000000     0.716630000000     0.399410000000    -0.0527056  
C107     C      0.077320000000     0.679590000000     0.416870000000     0.0607129  
C108     C      0.077460000000     0.651510000000     0.461860000000    -0.0302682  
C109     C      0.100350000000     0.727930000000     0.386470000000     0.0594687  
C110     C      0.133540000000     0.759410000000     0.348020000000    -0.083782   
C111     C      0.113380000000     0.714750000000     0.389670000000    -0.053752   
C112     C      0.140450000000     0.782770000000     0.326160000000     0.169251   
C113     C      0.119390000000     0.795000000000     0.372240000000    -0.00295464 
C114     C      0.064700000000     0.693230000000     0.415400000000    -0.0546859  
C115     C      0.560630000000     0.632330000000     0.919990000000    -0.0329989  
C116     C      0.653560000000     0.747280000000     0.832630000000    -0.030174   
C117     C      0.620440000000     0.761220000000     0.797500000000    -0.00670862 
C118     C      0.663420000000     0.766300000000     0.802550000000    -0.00680387 
C119     C      0.606420000000     0.685140000000     0.838630000000    -0.0539852  
C120     C      0.608420000000     0.692480000000     0.911800000000    -0.0537777  
C121     C      0.617240000000     0.709300000000     0.852050000000     0.0616048  
C122     C      0.612210000000     0.742550000000     0.827930000000    -0.0299274  
C123     C      0.597730000000     0.668310000000     0.898380000000     0.0608175  
C124     C      0.600090000000     0.632750000000     0.919460000000    -0.0823166  
C125     C      0.596640000000     0.664760000000     0.861480000000    -0.0556693  
C126     C      0.591370000000     0.613170000000     0.948970000000     0.168087   
C127     C      0.550700000000     0.613180000000     0.949810000000    -0.0051305  
C128     C      0.618020000000     0.712850000000     0.888920000000    -0.0563249  
C129     C      0.301760000000     0.080920000000     0.195280000000    -0.0327347  
C130     C      0.282640000000     0.972440000000     0.297620000000    -0.0303572  
C131     C      0.239920000000     0.966470000000     0.337820000000    -0.00678754 
C132     C      0.273010000000     0.954940000000     0.329580000000    -0.00721426 
C133     C      0.301920000000     0.036250000000     0.284380000000    -0.0537748  
C134     C      0.293030000000     0.024040000000     0.212670000000    -0.0536743  
C135     C      0.287760000000     0.011290000000     0.274430000000     0.0614866  
C136     C      0.249950000000     0.983240000000     0.305310000000    -0.0301647  
C137     C      0.307250000000     0.049000000000     0.222620000000     0.0608952  
C138     C      0.342930000000     0.085360000000     0.197340000000    -0.0822186  
C139     C      0.311400000000     0.055000000000     0.258840000000    -0.0555569  
C140     C      0.351610000000     0.102660000000     0.164980000000     0.16812    
C141     C      0.308380000000     0.097290000000     0.162390000000    -0.00466545 
C142     C      0.283130000000     0.005320000000     0.238250000000    -0.0560413  
C143     C      0.425300000000     0.294790000000     0.071590000000    -0.0326979  
C144     C      0.444480000000     0.411640000000     0.996380000000    -0.0299613  
C145     C      0.498810000000     0.439020000000     0.001550000000    -0.00664006 
C146     C      0.457940000000     0.440020000000     0.996380000000    -0.00629925 
C147     C      0.439210000000     0.369420000000     0.060670000000    -0.0538324  
C148     C      0.424740000000     0.333720000000     0.007340000000    -0.053362   
C149     C      0.444700000000     0.377010000000     0.025360000000     0.0618176  
C150     C      0.482830000000     0.410740000000     0.001290000000    -0.0295445  
C151     C      0.419680000000     0.326150000000     0.042740000000     0.060583   
C152     C      0.384320000000     0.290230000000     0.068880000000    -0.0821473  
C153     C      0.426800000000     0.344250000000     0.069410000000    -0.055512   
C154     C      0.371290000000     0.261760000000     0.071740000000     0.168357   
C155     C      0.414970000000     0.266870000000     0.073330000000    -0.00388812 
C156     C      0.437100000000     0.358940000000     0.998590000000    -0.0566339  
C157     C      0.664670000000     0.803410000000     0.432940000000    -0.0332524  
C158     C      0.702050000000     0.832880000000     0.618950000000    -0.029818   
C159     C      0.658280000000     0.832360000000     0.648640000000    -0.00644151 
C160     C      0.704460000000     0.845470000000     0.654530000000    -0.00700077 
C161     C      0.683970000000     0.843680000000     0.534480000000    -0.0536744  
C162     C      0.683940000000     0.800230000000     0.515490000000    -0.0539052  
C163     C      0.683200000000     0.827530000000     0.560880000000     0.0618386  
C164     C      0.658380000000     0.820100000000     0.613650000000    -0.0299601  
C165     C      0.685620000000     0.816850000000     0.489140000000     0.0613886  
C166     C      0.709600000000     0.831780000000     0.434960000000    -0.0836813  
C167     C      0.684860000000     0.838310000000     0.498860000000    -0.0555982  
C168     C      0.712860000000     0.823670000000     0.398030000000     0.169533   
C169     C      0.666720000000     0.794320000000     0.396180000000    -0.00448414 
C170     C      0.682400000000     0.805300000000     0.551110000000    -0.056155   
C171     C      0.700510000000     0.871670000000     0.934530000000    -0.0329492  
C172     C      0.657330000000     0.839570000000     0.117290000000    -0.0299864  
C173     C      0.704710000000     0.863450000000     0.155400000000    -0.00694471 
C174     C      0.658910000000     0.828540000000     0.152650000000    -0.00621839 
C175     C      0.680430000000     0.839130000000     0.037630000000    -0.0540267  
C176     C      0.677580000000     0.880500000000     0.015280000000    -0.0538896  
C177     C      0.680130000000     0.855470000000     0.062780000000     0.0618577  
C178     C      0.700430000000     0.871930000000     0.119470000000    -0.0296802  
C179     C      0.678710000000     0.864580000000     0.990110000000     0.0609396  
C180     C      0.655380000000     0.853070000000     0.935520000000    -0.08242    
C181     C      0.679430000000     0.843400000000     0.001610000000    -0.0557146  
C182     C      0.655040000000     0.861720000000     0.897520000000     0.169266   
C183     C      0.701890000000     0.881180000000     0.896980000000    -0.00436955 
C184     C      0.677950000000     0.875870000000     0.051400000000    -0.0564705  
C185     C      0.712550000000     0.749000000000     0.235010000000    -0.0329862  
C186     C      0.811380000000     0.722300000000     0.184470000000    -0.0299247  
C187     C      0.785960000000     0.668180000000     0.184850000000    -0.00674679 
C188     C      0.826900000000     0.709530000000     0.188020000000    -0.00691979 
C189     C      0.766590000000     0.723280000000     0.238430000000    -0.0538013  
C190     C      0.754370000000     0.742880000000     0.180210000000    -0.0538309  
C191     C      0.773080000000     0.719720000000     0.204370000000     0.0616447  
C192     C      0.772710000000     0.683240000000     0.181250000000    -0.0299146  
C193     C      0.748370000000     0.746900000000     0.214350000000     0.0608675  
C194     C      0.753640000000     0.784980000000     0.238780000000    -0.0822792  
C195     C      0.754290000000     0.736680000000     0.243510000000    -0.0557103  
C196     C      0.743580000000     0.803060000000     0.237840000000     0.168553   
C197     C      0.700030000000     0.764790000000     0.232840000000    -0.00380333 
C198     C      0.766560000000     0.729330000000     0.175120000000    -0.0564091  
C199     C      0.659380000000     0.910070000000     0.334260000000    -0.0327606  
C200     C      0.563880000000     0.935670000000     0.403050000000    -0.0298431  
C201     C      0.591820000000     0.986610000000     0.428810000000    -0.00732244 
C202     C      0.552050000000     0.944420000000     0.430750000000    -0.00693811 
C203     C      0.613810000000     0.926270000000     0.404810000000    -0.0538485  
C204     C      0.612630000000     0.926070000000     0.330870000000    -0.0536316  
C205     C      0.602700000000     0.938060000000     0.387110000000     0.0617479  
C206     C      0.601730000000     0.975640000000     0.401330000000    -0.0297684  
C207     C      0.623480000000     0.914020000000     0.348580000000     0.0607986  
C208     C      0.618180000000     0.873900000000     0.334270000000    -0.0820669  
C209     C      0.624090000000     0.914310000000     0.385840000000    -0.0555177  
C210     C      0.625750000000     0.859980000000     0.308090000000     0.168287   
C211     C      0.669030000000     0.898430000000     0.307600000000    -0.00451575 
C212     C      0.602280000000     0.937990000000     0.349870000000    -0.0562873  
C213     C      0.038590000000     0.545400000000     0.644870000000    -0.0329985  
C214     C      0.999000000000     0.486920000000     0.819910000000    -0.0303731  
C215     C      0.047900000000     0.507150000000     0.852710000000    -0.00699359 
C216     C      0.002610000000     0.474060000000     0.852170000000    -0.00682876 
C217     C      0.019670000000     0.497330000000     0.734820000000    -0.0537517  
C218     C      0.014670000000     0.539530000000     0.731070000000    -0.0538243  
C219     C      0.019030000000     0.509040000000     0.766090000000     0.0612808  
C220     C      0.042940000000     0.518900000000     0.820510000000    -0.02993    
C221     C      0.016350000000     0.528410000000     0.699780000000     0.060955   
C222     C      0.993190000000     0.525120000000     0.646470000000    -0.0822273  
C223     C      0.018060000000     0.506690000000     0.701910000000    -0.0557832  
C224     C      0.992890000000     0.539490000000     0.613440000000     0.168442   
C225     C      0.039580000000     0.560320000000     0.612210000000    -0.00456866 
C226     C      0.015700000000     0.529830000000     0.763990000000    -0.0559758  
C227     C      0.036880000000     0.527840000000     0.139190000000    -0.0329926  
C228     C      0.028740000000     0.508840000000     0.330050000000    -0.0305967  
C229     C      0.999710000000     0.529540000000     0.360110000000    -0.00689904 
C230     C      0.036120000000     0.521420000000     0.366340000000    -0.00568391 
C231     C      0.039990000000     0.527250000000     0.251610000000    -0.0532652  
C232     C      0.995340000000     0.497230000000     0.216090000000    -0.0530286  
C233     C      0.017700000000     0.515640000000     0.270950000000     0.0609876  
C234     C      0.995020000000     0.517490000000     0.323620000000    -0.0299902  
C235     C      0.017530000000     0.509490000000     0.196600000000     0.0601994  
C236     C      0.012550000000     0.483390000000     0.145880000000    -0.0825758  
C237     C      0.040110000000     0.523760000000     0.215120000000    -0.0545283  
C238     C      0.004220000000     0.479480000000     0.106940000000     0.169449   
C239     C      0.030610000000     0.526630000000     0.099950000000    -0.00398411 
C240     C      0.995390000000     0.499700000000     0.252840000000    -0.0549103  
C241     C      0.926270000000     0.619000000000     0.096190000000    -0.0327584  
C242     C      0.947060000000     0.528040000000     0.001560000000    -0.0301062  
C243     C      0.995840000000     0.558980000000     0.969720000000    -0.00700451 
C244     C      0.956140000000     0.518210000000     0.971380000000    -0.00681878 
C245     C      0.934570000000     0.575750000000     0.012550000000    -0.0539242  
C246     C      0.940990000000     0.572430000000     0.085200000000    -0.0538213  
C247     C      0.948330000000     0.564880000000     0.024440000000     0.0616607  
C248     C      0.985950000000     0.568070000000     0.999890000000    -0.0302646  
C249     C      0.927150000000     0.583210000000     0.073310000000     0.0610812  
C250     C      0.888890000000     0.578340000000     0.097700000000    -0.0824182  
C251     C      0.924030000000     0.584860000000     0.036680000000    -0.0557273  
C252     C      0.878040000000     0.586000000000     0.128550000000     0.168467   
C253     C      0.917060000000     0.627980000000     0.127200000000    -0.0051084  
C254     C      0.951520000000     0.563300000000     0.061070000000    -0.0562071  
C255     C      0.339140000000     0.146140000000     0.962800000000    -0.0328827  
C256     C      0.387450000000     0.179190000000     0.781840000000    -0.029913   
C257     C      0.343870000000     0.144010000000     0.741560000000    -0.00681586 
C258     C      0.390160000000     0.174770000000     0.742740000000    -0.00726708 
C259     C      0.364820000000     0.139290000000     0.856480000000    -0.054006   
C260     C      0.364280000000     0.179340000000     0.889050000000    -0.0536797  
C261     C      0.365620000000     0.158300000000     0.835620000000     0.0613671  
C262     C      0.342910000000     0.149900000000     0.780620000000    -0.0300783  
C263     C      0.364180000000     0.160700000000     0.909950000000     0.0607691  
C264     C      0.382670000000     0.159280000000     0.966150000000    -0.0829171  
C265     C      0.363790000000     0.140240000000     0.893340000000    -0.0558101  
C266     C      0.384890000000     0.167290000000     0.005060000000     0.169084   
C267     C      0.338040000000     0.154520000000     0.000330000000    -0.00101626 
C268     C      0.364680000000     0.178080000000     0.852200000000    -0.0562892  
C269     C      0.386250000000     0.214900000000     0.278860000000    -0.0329924  
C270     C      0.339570000000     0.191550000000     0.461340000000    -0.0300675  
C271     C      0.385820000000     0.215070000000     0.502200000000    -0.00688706 
C272     C      0.339440000000     0.181390000000     0.498220000000    -0.00624466 
C273     C      0.364770000000     0.187330000000     0.385000000000    -0.0535814  
C274     C      0.363470000000     0.228230000000     0.356820000000    -0.0537751  
C275     C      0.364160000000     0.204720000000     0.407840000000     0.0616576  
C276     C      0.383010000000     0.222640000000     0.464770000000    -0.0296551  
C277     C      0.364690000000     0.211140000000     0.333980000000     0.0610833  
C278     C      0.341270000000     0.197330000000     0.279640000000    -0.0823522  
C279     C      0.364760000000     0.190280000000     0.348410000000    -0.0556895  
C280     C      0.340990000000     0.204140000000     0.240620000000     0.169103   
C281     C      0.387670000000     0.222450000000     0.240130000000    -0.00445991 
C282     C      0.362920000000     0.224970000000     0.393480000000    -0.0562407  
C283     C      0.447090000000     0.032570000000     0.520480000000    -0.0329481  
C284     C      0.427030000000     0.133090000000     0.581150000000    -0.0298537  
C285     C      0.373230000000     0.112990000000     0.579680000000    -0.00689197 
C286     C      0.416930000000     0.150970000000     0.579280000000    -0.00697936 
C287     C      0.424850000000     0.089290000000     0.523230000000    -0.0536599  
C288     C      0.440890000000     0.071980000000     0.580040000000    -0.0536618  
C289     C      0.420650000000     0.094230000000     0.557870000000     0.0616129  
C290     C      0.385680000000     0.097040000000     0.581460000000    -0.0300598  
C291     C      0.445770000000     0.067700000000     0.545370000000     0.0608511  
C292     C      0.484340000000     0.072850000000     0.522360000000    -0.08233    
C293     C      0.437230000000     0.076090000000     0.516900000000    -0.0555558  
C294     C      0.501510000000     0.061660000000     0.522050000000     0.168477   
C295     C      0.462050000000     0.019100000000     0.521070000000    -0.00411599 
C296     C      0.428360000000     0.085070000000     0.586360000000    -0.0562883  
C297     C      0.098520000000     0.463420000000     0.957600000000    -0.033301   
C298     C      0.120030000000     0.368810000000     0.874300000000    -0.0299617  
C299     C      0.166110000000     0.401090000000     0.836670000000    -0.00709335 
C300     C      0.128810000000     0.358350000000     0.844490000000    -0.00729601 
C301     C      0.103940000000     0.415090000000     0.879160000000    -0.0538199  
C302     C      0.112480000000     0.416310000000     0.951970000000    -0.0542209  
C303     C      0.118340000000     0.405300000000     0.892430000000     0.0614005  
C304     C      0.156220000000     0.410050000000     0.866880000000    -0.0298136  
C305     C      0.098060000000     0.426080000000     0.938690000000     0.0612286  
C306     C      0.060440000000     0.423030000000     0.962810000000    -0.0835708  
C307     C      0.093880000000     0.425440000000     0.901980000000    -0.055878   
C308     C      0.050620000000     0.433030000000     0.991980000000     0.169563   
C309     C      0.089370000000     0.474210000000     0.986460000000    -0.00520805 
C310     C      0.122630000000     0.406040000000     0.929120000000    -0.0561488  
C311     C      0.281740000000     0.321750000000     0.770970000000    -0.032923   
C312     C      0.301040000000     0.227990000000     0.682270000000    -0.0300589  
C313     C      0.352290000000     0.253450000000     0.656840000000    -0.00738381 
C314     C      0.308490000000     0.216830000000     0.651900000000    -0.00705012 
C315     C      0.295550000000     0.279170000000     0.691700000000    -0.0538405  
C316     C      0.297640000000     0.274540000000     0.765010000000    -0.0540385  
C317     C      0.307220000000     0.266700000000     0.705620000000     0.061363   
C318     C      0.342980000000     0.263320000000     0.686790000000    -0.0299953  
C319     C      0.285740000000     0.286800000000     0.751070000000     0.0608349  
C320     C      0.246080000000     0.280000000000     0.771860000000    -0.0821421  
C321     C      0.284760000000     0.289040000000     0.714090000000    -0.0556928  
C322     C      0.233310000000     0.286740000000     0.801090000000     0.168381   
C323     C      0.270480000000     0.330110000000     0.800170000000    -0.00524148 
C324     C      0.308200000000     0.264440000000     0.742580000000    -0.0561673  
C325     C      0.494560000000     0.508780000000     0.807930000000    -0.0327707  
C326     C      0.497080000000     0.464750000000     0.628760000000    -0.0304107  
C327     C      0.471870000000     0.486660000000     0.590670000000    -0.00650048 
C328     C      0.484690000000     0.454200000000     0.592970000000    -0.00646222 
C329     C      0.477340000000     0.468690000000     0.710680000000    -0.0540575  
C330     C      0.522790000000     0.511350000000     0.725390000000    -0.0539218  
C331     C      0.492650000000     0.482930000000     0.682760000000     0.0616483  
C332     C      0.484360000000     0.496200000000     0.626510000000    -0.0300946  
C333     C      0.506970000000     0.497750000000     0.753260000000     0.0610805  
C334     C      0.522590000000     0.492270000000     0.809130000000    -0.0822151  
C335     C      0.484520000000     0.475780000000     0.745710000000    -0.0558082  
C336     C      0.534600000000     0.505540000000     0.844050000000     0.169215   
C337     C      0.505030000000     0.523010000000     0.842280000000    -0.00396738 
C338     C      0.515920000000     0.503890000000     0.690410000000    -0.0562484  
C339     C      0.525310000000     0.486060000000     0.306930000000    -0.0329236  
C340     C      0.550820000000     0.542080000000     0.131980000000    -0.0301289  
C341     C      0.504430000000     0.524550000000     0.092740000000    -0.00664303 
C342     C      0.551020000000     0.536980000000     0.092560000000    -0.00563279 
C343     C      0.537420000000     0.507670000000     0.198300000000    -0.0533249  
C344     C      0.516390000000     0.527100000000     0.244400000000    -0.0532899  
C345     C      0.526990000000     0.521400000000     0.184510000000     0.0613698  
C346     C      0.507110000000     0.528720000000     0.132720000000    -0.0298128  
C347     C      0.526380000000     0.512960000000     0.258130000000     0.0608009  
C348     C      0.542950000000     0.529840000000     0.316020000000    -0.0836206  
C349     C      0.537760000000     0.503990000000     0.234680000000    -0.0549323  
C350     C      0.534270000000     0.527050000000     0.354490000000     0.171083   
C351     C      0.517100000000     0.479820000000     0.345490000000    -0.00225811 
C352     C      0.517210000000     0.531860000000     0.208190000000    -0.0553148  
C353     C      0.880680000000     0.210100000000     0.804530000000    -0.0332114  
C354     C      0.840260000000     0.204690000000     0.988700000000    -0.0297569  
C355     C      0.853840000000     0.169390000000     0.017090000000    -0.00677517 
C356     C      0.829050000000     0.191820000000     0.023920000000    -0.00751085 
C357     C      0.837900000000     0.181170000000     0.902610000000    -0.0535919  
C358     C      0.876290000000     0.229090000000     0.886900000000    -0.0537618  
C359     C      0.851500000000     0.197250000000     0.930250000000     0.061375   
C360     C      0.864050000000     0.183700000000     0.982470000000    -0.0300612  
C361     C      0.862380000000     0.213150000000     0.859280000000     0.0608852  
C362     C      0.846920000000     0.219600000000     0.803390000000    -0.0831154  
C363     C      0.843370000000     0.188880000000     0.867410000000    -0.0556277  
C364     C      0.855190000000     0.231900000000     0.766860000000     0.168368   
C365     C      0.890020000000     0.222430000000     0.768430000000    -0.00532812 
C366     C      0.871120000000     0.221210000000     0.922110000000    -0.0561089  
C367     C      0.821060000000     0.164460000000     0.488940000000    -0.032985   
C368     C      0.848490000000     0.147410000000     0.304730000000    -0.0301639  
C369     C      0.813190000000     0.158980000000     0.270930000000    -0.00711953 
C370     C      0.839730000000     0.138620000000     0.266780000000    -0.00674819 
C371     C      0.819270000000     0.134690000000     0.385930000000    -0.053772   
C372     C      0.856720000000     0.180580000000     0.411000000000    -0.0533289  
C373     C      0.834280000000     0.153290000000     0.361770000000     0.0616068  
C374     C      0.823000000000     0.166960000000     0.308480000000    -0.0297086  
C375     C      0.841110000000     0.162320000000     0.435140000000     0.0606475  
C376     C      0.853940000000     0.154660000000     0.492080000000    -0.0825489  
C377     C      0.822740000000     0.139010000000     0.422340000000    -0.0554834  
C378     C      0.862220000000     0.165910000000     0.529210000000     0.169204   
C379     C      0.826800000000     0.176480000000     0.525480000000    -0.00266475 
C380     C      0.853540000000     0.176120000000     0.374610000000    -0.0562402  
C381     C      0.191140000000     0.366790000000     0.660570000000    -0.032876   
C382     C      0.146520000000     0.324140000000     0.479800000000    -0.0298951  
C383     C      0.152400000000     0.368850000000     0.445880000000    -0.00715472 
C384     C      0.133690000000     0.322420000000     0.444520000000    -0.00726121 
C385     C      0.144630000000     0.348000000000     0.564020000000    -0.0539756  
C386     C      0.186980000000     0.344250000000     0.577800000000    -0.0536294  
C387     C      0.158270000000     0.346280000000     0.535730000000     0.0613256  
C388     C      0.164880000000     0.369150000000     0.481090000000    -0.0301923  
C389     C      0.172800000000     0.345010000000     0.606110000000     0.0604869  
C390     C      0.159650000000     0.323480000000     0.662430000000    -0.0821814  
C391     C      0.151930000000     0.347690000000     0.598930000000    -0.0555612  
C392     C      0.169300000000     0.319220000000     0.697690000000     0.167937   
C393     C      0.203340000000     0.364890000000     0.694690000000    -0.00395861 
C394     C      0.180030000000     0.345190000000     0.542890000000    -0.056257   
C395     C      0.182050000000     0.331400000000     0.163490000000    -0.0328168  
C396     C      0.220530000000     0.370620000000     0.979620000000    -0.0303177  
C397     C      0.200070000000     0.321850000000     0.947030000000    -0.00738392 
C398     C      0.230740000000     0.367760000000     0.944050000000    -0.00701127 
C399     C      0.220350000000     0.351100000000     0.064070000000    -0.0538698  
C400     C      0.177350000000     0.353310000000     0.079360000000    -0.0538296  
C401     C      0.205110000000     0.350610000000     0.036320000000     0.0611831  
C402     C      0.191000000000     0.326210000000     0.982440000000    -0.0298647  
C403     C      0.192070000000     0.352820000000     0.107160000000     0.0604874  
C404     C      0.199590000000     0.375800000000     0.161800000000    -0.0820379  
C405     C      0.214100000000     0.352470000000     0.099200000000    -0.0556831  
C406     C      0.187320000000     0.376150000000     0.197030000000     0.168596   
C407     C      0.168560000000     0.328890000000     0.198300000000    -0.0040691  
C408     C      0.183880000000     0.352470000000     0.044200000000    -0.0562296  
C409     C      0.948170000000     0.237080000000     0.184190000000    -0.0326354  
C410     C      0.059800000000     0.333970000000     0.268620000000    -0.0302523  
C411     C      0.072640000000     0.298040000000     0.296460000000    -0.00684778 
C412     C      0.080380000000     0.342070000000     0.296570000000    -0.00728109 
C413     C      0.996090000000     0.284930000000     0.266850000000    -0.0540131  
C414     C      0.999450000000     0.291570000000     0.193550000000    -0.0536384  
C415     C      0.019540000000     0.299100000000     0.251150000000     0.0615055  
C416     C      0.052900000000     0.291940000000     0.268030000000    -0.0300401  
C417     C      0.976030000000     0.276940000000     0.209160000000     0.060637   
C418     C      0.932940000000     0.265590000000     0.196130000000    -0.0823055  
C419     C      0.974520000000     0.273720000000     0.246150000000    -0.0555025  
C420     C      0.912000000000     0.252770000000     0.168450000000     0.167782   
C421     C      0.928790000000     0.224140000000     0.155280000000    -0.004831   
C422     C      0.021070000000     0.302380000000     0.214180000000    -0.0562125  
C423     C      0.394940000000     0.456310000000     0.425750000000    -0.0326501  
C424     C      0.269840000000     0.367180000000     0.360260000000    -0.0301974  
C425     C      0.249750000000     0.400830000000     0.359270000000    -0.00651471 
C426     C      0.241540000000     0.356160000000     0.360550000000    -0.00642007 
C427     C      0.316000000000     0.404310000000     0.420550000000    -0.0539864  
C428     C      0.350670000000     0.416690000000     0.365970000000    -0.0536188  
C429     C      0.307870000000     0.400540000000     0.385370000000     0.0615411  
C430     C      0.277500000000     0.409250000000     0.358890000000    -0.0298864  
C431     C      0.358850000000     0.420810000000     0.401160000000     0.0606786  
C432     C      0.391420000000     0.415970000000     0.428840000000    -0.0821941  
C433     C      0.341240000000     0.414330000000     0.428520000000    -0.0557793  
C434     C      0.419810000000     0.426920000000     0.430440000000     0.168494   
C435     C      0.423330000000     0.469760000000     0.426070000000    -0.00383038 
C436     C      0.325400000000     0.406620000000     0.358010000000    -0.0563168  
C437     C      0.520100000000     0.966440000000     0.621610000000    -0.0329849  
C438     C      0.535620000000     0.010050000000     0.804220000000    -0.0301007  
C439     C      0.508740000000     0.965850000000     0.848130000000    -0.00715834 
C440     C      0.525380000000     0.012270000000     0.839900000000    -0.00634517 
C441     C      0.509110000000     0.985810000000     0.727150000000    -0.0538709  
C442     C      0.550300000000     0.982150000000     0.705590000000    -0.0538387  
C443     C      0.524500000000     0.983970000000     0.752650000000     0.0617667  
C444     C      0.519340000000     0.965940000000     0.811570000000    -0.0299088  
C445     C      0.534760000000     0.983760000000     0.680080000000     0.0611104  
C446     C      0.551980000000     0.009890000000     0.628850000000    -0.0824386  
C447     C      0.514290000000     0.986030000000     0.691200000000    -0.0556667  
C448     C      0.561750000000     0.010970000000     0.591190000000     0.168874   
C449     C      0.528850000000     0.966180000000     0.583950000000    -0.00483783 
C450     C      0.545470000000     0.982550000000     0.741620000000    -0.0562556  
C451     C      0.496330000000     0.994790000000     0.313280000000    -0.0332578  
C452     C      0.520620000000     0.033480000000     0.127080000000    -0.0299975  
C453     C      0.510280000000     0.985900000000     0.097550000000    -0.00637899 
C454     C      0.529580000000     0.032820000000     0.089610000000    -0.00711359 
C455     C      0.532750000000     0.013620000000     0.209580000000    -0.0538241  
C456     C      0.493730000000     0.019590000000     0.235090000000    -0.05386    
C457     C      0.516520000000     0.015480000000     0.185640000000     0.0615803  
C458     C      0.501860000000     0.989070000000     0.134160000000    -0.0301132  
C459     C      0.510210000000     0.018100000000     0.259020000000     0.0611105  
C460     C      0.528670000000     0.038380000000     0.314790000000    -0.0832583  
C461     C      0.529550000000     0.014630000000     0.245960000000    -0.05569    
C462     C      0.522500000000     0.040820000000     0.353360000000     0.168775   
C463     C      0.488950000000     0.996010000000     0.351500000000    -0.00490995 
C464     C      0.496610000000     0.018010000000     0.198680000000    -0.0561716  
C465     C      0.723610000000     0.087610000000     0.127480000000    -0.0330467  
C466     C      0.631330000000     0.055820000000     0.990380000000    -0.0304754  
C467     C      0.598130000000     0.002380000000     0.994440000000    -0.00639444 
C468     C      0.610610000000     0.042590000000     0.963070000000    -0.00669302 
C469     C      0.676150000000     0.038890000000     0.029170000000    -0.0543713  
C470     C      0.691200000000     0.083310000000     0.064910000000    -0.051377   
C471     C      0.661720000000     0.050430000000     0.026130000000     0.0616955  
C472     C      0.618900000000     0.016970000000     0.021350000000    -0.0305534  
C473     C      0.705190000000     0.071300000000     0.069260000000     0.0590055  
C474     C      0.744460000000     0.072650000000     0.088950000000    -0.0805638  
C475     C      0.697330000000     0.048860000000     0.050690000000    -0.0523537  
C476     C      0.767230000000     0.085880000000     0.114320000000     0.167998   
C477     C      0.747560000000     0.109950000000     0.140830000000     0.00590121 
C478     C      0.669370000000     0.072700000000     0.044840000000    -0.0558026  
C479     C      0.198280000000     0.884990000000     0.509640000000    -0.0330019  
C480     C      0.203950000000     0.845480000000     0.690020000000    -0.0299673  
C481     C      0.201790000000     0.885970000000     0.725460000000    -0.00687558 
C482     C      0.209960000000     0.850020000000     0.729530000000    -0.00746911 
C483     C      0.228620000000     0.884450000000     0.613900000000    -0.0539497  
C484     C      0.185720000000     0.848250000000     0.579880000000    -0.0536572  
C485     C      0.208610000000     0.866910000000     0.634150000000     0.0614493  
C486     C      0.195650000000     0.879720000000     0.686340000000    -0.0299696  
C487     C      0.205780000000     0.865700000000     0.559620000000     0.0605443  
C488     C      0.224030000000     0.866480000000     0.502180000000    -0.0823589  
C489     C      0.227190000000     0.884100000000     0.577000000000    -0.0555988  
C490     C      0.217820000000     0.861430000000     0.462550000000     0.168254   
C491     C      0.188970000000     0.879810000000     0.471590000000    -0.00245834 
C492     C      0.186920000000     0.848950000000     0.616800000000    -0.056355   
C493     C      0.147580000000     0.864060000000     0.997610000000    -0.0332377  
C494     C      0.184950000000     0.858110000000     0.178790000000    -0.0300588  
C495     C      0.168270000000     0.885310000000     0.223240000000    -0.00730314 
C496     C      0.198790000000     0.869770000000     0.213170000000    -0.00643675 
C497     C      0.182520000000     0.880710000000     0.100690000000    -0.0538185  
C498     C      0.137400000000     0.838160000000     0.084400000000    -0.0539498  
C499     C      0.166680000000     0.866380000000     0.128120000000     0.0614047  
C500     C      0.156280000000     0.873450000000     0.187770000000    -0.0299798  
C501     C      0.153190000000     0.852600000000     0.056950000000     0.0609907  
C502     C      0.160460000000     0.833250000000     0.006690000000    -0.0825309  
C503     C      0.176080000000     0.873790000000     0.065440000000    -0.0558417  
C504     C      0.150260000000     0.821580000000     0.970290000000     0.168757   
C505     C      0.137020000000     0.853370000000     0.961180000000    -0.00473162 
C506     C      0.144150000000     0.844740000000     0.119720000000    -0.0561439  
C507     C      0.283150000000     0.932220000000     0.889530000000    -0.032862   
C508     C      0.401020000000     0.945850000000     0.952480000000    -0.0298598  
C509     C      0.439180000000     0.998150000000     0.947250000000    -0.00677402 
C510     C      0.428180000000     0.952450000000     0.949570000000    -0.00664031 
C511     C      0.361960000000     0.951770000000     0.893360000000    -0.0537884  
C512     C      0.329030000000     0.939100000000     0.950300000000    -0.053637   
C513     C      0.371260000000     0.956020000000     0.927950000000     0.0615876  
C514     C      0.411160000000     0.988630000000     0.950200000000    -0.0300189  
C515     C      0.319620000000     0.933770000000     0.915730000000     0.0606287  
C516     C      0.285810000000     0.894950000000     0.894980000000    -0.0823258  
C517     C      0.336400000000     0.940850000000     0.887160000000    -0.0556034  
C518     C      0.257420000000     0.878110000000     0.895200000000     0.168552   
C519     C      0.254660000000     0.917680000000     0.890360000000    -0.00424933 
C520     C      0.354660000000     0.950260000000     0.956480000000    -0.056364   
C521     C      0.828540000000     0.677950000000     0.810170000000    -0.0332126  
C522     C      0.815820000000     0.632340000000     0.993060000000    -0.0296268  
C523     C      0.858390000000     0.673910000000     0.027460000000    -0.00649931 
C524     C      0.824720000000     0.628050000000     0.028680000000    -0.0075543  
C525     C      0.848010000000     0.654930000000     0.910930000000    -0.0534101  
C526     C      0.804530000000     0.654740000000     0.890590000000    -0.0537498  
C527     C      0.831370000000     0.653810000000     0.936890000000     0.06141    
C528     C      0.847290000000     0.675790000000     0.992200000000    -0.030089   
C529     C      0.820660000000     0.654780000000     0.864600000000     0.0611032  
C530     C      0.814610000000     0.633700000000     0.808250000000    -0.0835419  
C531     C      0.842960000000     0.655760000000     0.875100000000    -0.0556217  
C532     C      0.803880000000     0.631420000000     0.770990000000     0.169244   
C533     C      0.818050000000     0.676920000000     0.773080000000    -0.00482917 
C534     C      0.809950000000     0.654620000000     0.926480000000    -0.0560366  
C535     C      0.852770000000     0.677980000000     0.490440000000    -0.0336237  
C536     C      0.886650000000     0.669040000000     0.308520000000    -0.0299663  
C537     C      0.841660000000     0.627100000000     0.279840000000    -0.00654808 
C538     C      0.887390000000     0.658450000000     0.272370000000    -0.0072808  
C539     C      0.859760000000     0.637150000000     0.393350000000    -0.0531434  
C540     C      0.878180000000     0.686060000000     0.415390000000    -0.0533094  
C541     C      0.868150000000     0.656050000000     0.367900000000     0.0611345  
C542     C      0.842520000000     0.639300000000     0.315390000000    -0.0303454  
C543     C      0.870430000000     0.667240000000     0.440880000000     0.0607672  
C544     C      0.876970000000     0.657640000000     0.501960000000    -0.0808058  
C545     C      0.860300000000     0.642490000000     0.429340000000    -0.0547065  
C546     C      0.884400000000     0.669400000000     0.538690000000     0.170939   
C547     C      0.859550000000     0.690610000000     0.526770000000    -0.00375348 
C548     C      0.876550000000     0.680570000000     0.379310000000    -0.0552369  
C549     C      0.736570000000     0.586400000000     0.590830000000    -0.0325665  
C550     C      0.613000000000     0.558980000000     0.528810000000    -0.0295793  
C551     C      0.591260000000     0.508990000000     0.499830000000    -0.00708548 
C552     C      0.591460000000     0.549980000000     0.502530000000    -0.00737363 
C553     C      0.673310000000     0.569880000000     0.522170000000    -0.0537879  
C554     C      0.674090000000     0.570160000000     0.596120000000    -0.0536094  
C555     C      0.650830000000     0.558050000000     0.540870000000     0.0617989  
C556     C      0.612850000000     0.519980000000     0.526300000000    -0.0297084  
C557     C      0.696570000000     0.582420000000     0.577400000000     0.0608316  
C558     C      0.732030000000     0.622730000000     0.589370000000    -0.082033   
C559     C      0.696030000000     0.581940000000     0.540150000000    -0.0554673  
C560     C      0.754010000000     0.637180000000     0.614700000000     0.168379   
C561     C      0.758270000000     0.598340000000     0.616920000000    -0.00451716 
C562     C      0.651360000000     0.557990000000     0.578110000000    -0.0563324  
C563     C      0.948520000000     0.706800000000     0.716010000000    -0.0326831  
C564     C      0.066160000000     0.810740000000     0.781890000000    -0.0298702  
C565     C      0.090130000000     0.784440000000     0.810980000000    -0.00746254 
C566     C      0.086950000000     0.823720000000     0.809220000000    -0.00714766 
C567     C      0.007310000000     0.758860000000     0.785470000000    -0.0539067  
C568     C      0.008190000000     0.758120000000     0.711550000000    -0.0537816  
C569     C      0.030180000000     0.771080000000     0.767740000000     0.0615173  
C570     C      0.069200000000     0.773410000000     0.783550000000    -0.0296303  
C571     C      0.985300000000     0.745940000000     0.729280000000     0.0607427  
C572     C      0.946910000000     0.744790000000     0.713800000000    -0.082152   
C573     C      0.985020000000     0.746390000000     0.766530000000    -0.0557475  
C574     C      0.925120000000     0.733920000000     0.687440000000     0.168254   
C575     C      0.927390000000     0.694030000000     0.689230000000    -0.00462285 
C576     C      0.030500000000     0.770610000000     0.730520000000    -0.0563923  
Cu1      Cu     0.839710000000     0.684960000000     0.650260000000     0.84961    
Cu2      Cu     0.842610000000     0.646950000000     0.653890000000     0.848711   
Cu3      Cu     0.172160000000     0.870800000000     0.844620000000     0.837954   
Cu4      Cu     0.175100000000     0.832720000000     0.846520000000     0.853432   
Cu5      Cu     0.524260000000     0.021290000000     0.964490000000     0.839188   
Cu6      Cu     0.512220000000     0.977360000000     0.973170000000     0.844754   
Cu7      Cu     0.166950000000     0.371410000000     0.320570000000     0.841412   
Cu8      Cu     0.158310000000     0.328160000000     0.322650000000     0.842996   
Cu9      Cu     0.828680000000     0.181570000000     0.149110000000     0.844455   
Cu10     Cu     0.847420000000     0.154970000000     0.141550000000     0.843404   
Cu11     Cu     0.505220000000     0.507840000000     0.472870000000     0.847379   
Cu12     Cu     0.504870000000     0.468070000000     0.469170000000     0.845664   
Cu13     Cu     0.181280000000     0.323010000000     0.824000000000     0.85258    
Cu14     Cu     0.217700000000     0.365000000000     0.818210000000     0.836509   
Cu15     Cu     0.341650000000     0.164710000000     0.620150000000     0.840343   
Cu16     Cu     0.384500000000     0.200130000000     0.624940000000     0.842884   
Cu17     Cu     0.003150000000     0.476010000000     0.979660000000     0.849104   
Cu18     Cu     0.042350000000     0.516150000000     0.978070000000     0.842527   
Cu19     Cu     0.663850000000     0.812010000000     0.273900000000     0.845543   
Cu20     Cu     0.705540000000     0.849170000000     0.278360000000     0.854658   
Cu21     Cu     0.831650000000     0.628280000000     0.154130000000     0.848033   
Cu22     Cu     0.870560000000     0.668600000000     0.150910000000     0.839656   
Cu23     Cu     0.507000000000     0.983330000000     0.469960000000     0.840022   
Cu24     Cu     0.545400000000     0.024140000000     0.469640000000     0.85867    
Cu25     Cu     0.383440000000     0.187780000000     0.125470000000     0.851733   
Cu26     Cu     0.340370000000     0.179530000000     0.118820000000     0.848562   
Cu27     Cu     0.543790000000     0.523920000000     0.968680000000     0.850262   
Cu28     Cu     0.504820000000     0.525540000000     0.968000000000     0.844009   
Cu29     Cu     0.209810000000     0.868430000000     0.337380000000     0.849385   
Cu30     Cu     0.178070000000     0.880540000000     0.348330000000     0.842097   
Cu31     Cu     0.036980000000     0.538400000000     0.489930000000     0.837588   
Cu32     Cu     0.994410000000     0.531950000000     0.485150000000     0.8539     
Cu33     Cu     0.875340000000     0.194570000000     0.648500000000     0.841214   
Cu34     Cu     0.837510000000     0.198240000000     0.646400000000     0.849921   
Cu35     Cu     0.699270000000     0.853360000000     0.778490000000     0.846458   
Cu36     Cu     0.657200000000     0.847870000000     0.771630000000     0.848505   
H1       H      0.770090000000     0.043630000000     0.659300000000     0.0421375  
H2       H      0.766650000000     0.973850000000     0.734230000000     0.0353084  
H3       H      0.696520000000     0.969900000000     0.730290000000     0.0493008  
H4       H      0.833540000000     0.118730000000     0.728660000000     0.0377654  
H5       H      0.738380000000     0.932570000000     0.714290000000     0.0366833  
H6       H      0.755850000000     0.082500000000     0.704620000000     0.0354115  
H7       H      0.821170000000     0.076870000000     0.711160000000     0.035314   
H8       H      0.780690000000     0.125360000000     0.679400000000     0.0428288  
H9       H      0.746170000000     0.998390000000     0.666770000000     0.0451027  
H10      H      0.746730000000     0.930990000000     0.759180000000     0.0411795  
H11      H      0.771060000000     0.052930000000     0.772380000000     0.0450408  
H12      H      0.749330000000     0.969820000000     0.774370000000     0.0390913  
H13      H      0.846420000000     0.119660000000     0.685840000000     0.043226   
H14      H      0.687170000000     0.928970000000     0.713320000000     0.00192561 
H15      H      0.772450000000     0.083930000000     0.664710000000     0.0391427  
H16      H      0.810420000000     0.080660000000     0.668510000000     0.0399066  
H17      H      0.747060000000     0.007730000000     0.779860000000     0.0414771  
H18      H      0.709550000000     0.968380000000     0.772150000000     0.0594424  
H19      H      0.788480000000     0.122600000000     0.724270000000     0.0393132  
H20      H      0.659320000000     0.926520000000     0.750450000000     0.13875    
H21      H      0.939460000000     0.351410000000     0.621040000000     0.0413429  
H22      H      0.006010000000     0.421780000000     0.538680000000     0.0351494  
H23      H      0.932570000000     0.409360000000     0.530940000000     0.0497111  
H24      H      0.924590000000     0.268590000000     0.572280000000     0.0392026  
H25      H      0.011390000000     0.461830000000     0.549700000000     0.038172   
H26      H      0.888390000000     0.312360000000     0.573790000000     0.0354311  
H27      H      0.955560000000     0.310730000000     0.585760000000     0.0349668  
H28      H      0.865050000000     0.271760000000     0.605640000000     0.0426729  
H29      H      0.959030000000     0.395500000000     0.605150000000     0.0450667  
H30      H      0.021640000000     0.462250000000     0.505370000000     0.0402316  
H31      H      0.936800000000     0.332420000000     0.510870000000     0.0452542  
H32      H      0.991860000000     0.419150000000     0.496080000000     0.038676   
H33      H      0.932160000000     0.269890000000     0.618310000000     0.0408034  
H34      H      0.955620000000     0.452700000000     0.541960000000     0.00570377 
H35      H      0.900150000000     0.312410000000     0.617460000000     0.0383493  
H36      H      0.938980000000     0.311660000000     0.624350000000     0.0377122  
H37      H      0.956720000000     0.376500000000     0.495010000000     0.0415829  
H38      H      0.949980000000     0.411380000000     0.491800000000     0.0595601  
H39      H      0.877150000000     0.269950000000     0.563390000000     0.038438   
H40      H      0.930220000000     0.445970000000     0.498380000000     0.140411   
H41      H      0.045980000000     0.685810000000     0.425410000000     0.040386   
H42      H      0.097200000000     0.766290000000     0.409450000000     0.0337608  
H43      H      0.130500000000     0.744320000000     0.329360000000     0.049499   
H44      H      0.080670000000     0.620160000000     0.444440000000     0.0414233  
H45      H      0.102770000000     0.790590000000     0.355830000000     0.0370959  
H46      H      0.029600000000     0.643450000000     0.409790000000     0.0346141  
H47      H      0.098110000000     0.663040000000     0.460820000000     0.0331198  
H48      H      0.008970000000     0.605120000000     0.450460000000     0.0417348  
H49      H      0.065090000000     0.725960000000     0.396970000000     0.0425019  
H50      H      0.122450000000     0.809990000000     0.391120000000     0.0383016  
H51      H      0.111820000000     0.680710000000     0.403850000000     0.0432035  
H52      H      0.129890000000     0.776420000000     0.411880000000     0.0419145  
H53      H      0.077810000000     0.621890000000     0.491390000000     0.0374717  
H54      H      0.125500000000     0.777820000000     0.306050000000    -0.000393796
H55      H      0.033330000000     0.648750000000     0.456920000000     0.0363715  
H56      H      0.071090000000     0.657400000000     0.485600000000     0.0388201  
H57      H      0.132320000000     0.722310000000     0.380540000000     0.0411295  
H58      H      0.149450000000     0.763330000000     0.365790000000     0.0610068  
H59      H      0.026220000000     0.604440000000     0.413180000000     0.0380702  
H60      H      0.159770000000     0.780000000000     0.287750000000     0.136332   
H61      H      0.626000000000     0.731310000000     0.899960000000     0.0415283  
H62      H      0.551860000000     0.644120000000     0.922330000000     0.0351583  
H63      H      0.620660000000     0.644940000000     0.921570000000     0.0501244  
H64      H      0.615090000000     0.750830000000     0.772100000000     0.0376656  
H65      H      0.554030000000     0.623140000000     0.975420000000     0.0361607  
H66      H      0.664090000000     0.737110000000     0.832600000000     0.0350629  
H67      H      0.592040000000     0.728880000000     0.824520000000     0.0352833  
H68      H      0.683190000000     0.780190000000     0.808170000000     0.0415754  
H69      H      0.609220000000     0.695490000000     0.940080000000     0.0444866  
H70      H      0.530220000000     0.601400000000     0.946370000000     0.0413432  
H71      H      0.605480000000     0.682110000000     0.810340000000     0.0448988  
H72      H      0.555120000000     0.622550000000     0.894060000000     0.0396992  
H73      H      0.610150000000     0.771560000000     0.799500000000     0.0439513  
H74      H      0.598090000000     0.623050000000     0.974750000000     0.00018648 
H75      H      0.657050000000     0.757270000000     0.858280000000     0.0388483  
H76      H      0.614650000000     0.752440000000     0.853460000000     0.0405941  
H77      H      0.588230000000     0.646290000000     0.850370000000     0.0416418  
H78      H      0.595860000000     0.623200000000     0.893350000000     0.0601235  
H79      H      0.662960000000     0.756580000000     0.777650000000     0.0373753  
H80      H      0.619150000000     0.607020000000     0.952590000000     0.136989   
H81      H      0.271630000000     0.986280000000     0.229770000000     0.0413803  
H82      H      0.281410000000     0.067360000000     0.194610000000     0.0357762  
H83      H      0.353240000000     0.074960000000     0.197900000000     0.0503923  
H84      H      0.248760000000     0.977900000000     0.361770000000     0.0374008  
H85      H      0.301750000000     0.085150000000     0.138630000000     0.037658   
H86      H      0.303140000000     0.980300000000     0.295650000000     0.0356212  
H87      H      0.246380000000     0.998960000000     0.308700000000     0.0348834  
H88      H      0.276370000000     0.939190000000     0.325100000000     0.0432169  
H89      H      0.289240000000     0.019150000000     0.184980000000     0.0447788  
H90      H      0.298010000000     0.107580000000     0.163650000000     0.0445108  
H91      H      0.305160000000     0.041170000000     0.312120000000     0.0449071  
H92      H      0.305770000000     0.092590000000     0.219410000000     0.0418205  
H93      H      0.219530000000     0.959150000000     0.339710000000     0.0416727  
H94      H      0.349630000000     0.091280000000     0.141100000000     0.00260197 
H95      H      0.273840000000     0.961440000000     0.273310000000     0.0389341  
H96      H      0.239760000000     0.972590000000     0.281340000000     0.0397492  
H97      H      0.321690000000     0.074120000000     0.267430000000     0.0419604  
H98      H      0.347760000000     0.096880000000     0.221730000000     0.0601913  
H99      H      0.283910000000     0.965270000000     0.353240000000     0.0385767  
H100     H      0.386840000000     0.113000000000     0.162770000000     0.13892    
H101     H      0.441080000000     0.364330000000     0.971100000000     0.0413478  
H102     H      0.443990000000     0.303420000000     0.058860000000     0.0355169  
H103     H      0.372020000000     0.295170000000     0.053650000000     0.0492812  
H104     H      0.505650000000     0.445210000000     0.028940000000     0.0398399  
H105     H      0.416720000000     0.260250000000     0.046750000000     0.0372054  
H106     H      0.425540000000     0.404590000000     0.007740000000     0.0348901  
H107     H      0.492860000000     0.402990000000     0.016340000000     0.0353184  
H108     H      0.449030000000     0.446160000000     0.976270000000     0.0406026  
H109     H      0.419430000000     0.320030000000     0.986550000000     0.044666   
H110     H      0.426910000000     0.263400000000     0.091740000000     0.0420233  
H111     H      0.444940000000     0.383140000000     0.081510000000     0.0454902  
H112     H      0.427720000000     0.302280000000     0.098960000000     0.0394351  
H113     H      0.515460000000     0.444490000000     0.984660000000     0.0430163  
H114     H      0.364510000000     0.253740000000     0.044900000000     0.00185014 
H115     H      0.442260000000     0.404790000000     0.968660000000     0.0374336  
H116     H      0.480530000000     0.403900000000     0.973550000000     0.0379511  
H117     H      0.423200000000     0.338940000000     0.096970000000     0.041662   
H118     H      0.386770000000     0.298330000000     0.095860000000     0.0596217  
H119     H      0.455180000000     0.446410000000     0.022570000000     0.0391672  
H120     H      0.337020000000     0.253130000000     0.081090000000     0.138683   
H121     H      0.681010000000     0.792100000000     0.570910000000     0.0410212  
H122     H      0.648710000000     0.787890000000     0.447000000000     0.0359921  
H123     H      0.726760000000     0.837140000000     0.450660000000     0.0511537  
H124     H      0.658690000000     0.850100000000     0.642880000000     0.0402172  
H125     H      0.668270000000     0.777360000000     0.399220000000     0.0372632  
H126     H      0.720460000000     0.842560000000     0.605430000000     0.0351508  
H127     H      0.643900000000     0.820030000000     0.596100000000     0.0347705  
H128     H      0.716440000000     0.841440000000     0.672060000000     0.0410707  
H129     H      0.683940000000     0.783380000000     0.508350000000     0.0447416  
H130     H      0.649250000000     0.789140000000     0.381460000000     0.0439427  
H131     H      0.684020000000     0.860560000000     0.541610000000     0.0453681  
H132     H      0.660780000000     0.819000000000     0.430220000000     0.0422486  
H133     H      0.640510000000     0.820060000000     0.662650000000     0.0401354  
H134     H      0.717090000000     0.808310000000     0.401330000000     0.00160527 
H135     H      0.697140000000     0.813290000000     0.623710000000     0.0367531  
H136     H      0.653430000000     0.800480000000     0.618370000000     0.0376179  
H137     H      0.685300000000     0.851080000000     0.479050000000     0.0423798  
H138     H      0.707350000000     0.848380000000     0.432180000000     0.0612065  
H139     H      0.714260000000     0.865890000000     0.650400000000     0.0384095  
H140     H      0.748390000000     0.844860000000     0.389930000000     0.139114   
H141     H      0.676900000000     0.888360000000     0.070290000000     0.0408848  
H142     H      0.718060000000     0.884650000000     0.948560000000     0.0355172  
H143     H      0.639490000000     0.852370000000     0.950270000000     0.0496705  
H144     H      0.716090000000     0.854350000000     0.151490000000     0.0394251  
H145     H      0.706080000000     0.900750000000     0.898440000000     0.0366354  
H146     H      0.642710000000     0.824400000000     0.100940000000     0.0345533  
H147     H      0.718400000000     0.881030000000     0.104790000000     0.0349638  
H148     H      0.641610000000     0.823230000000     0.167910000000     0.0398629  
H149     H      0.676500000000     0.896570000000     0.006830000000     0.0445113  
H150     H      0.717730000000     0.881250000000     0.883110000000     0.0415259  
H151     H      0.681510000000     0.823050000000     0.046070000000     0.0449408  
H152     H      0.699140000000     0.853160000000     0.933110000000     0.0399808  
H153     H      0.715900000000     0.880140000000     0.172080000000     0.0413153  
H154     H      0.654900000000     0.879580000000     0.898710000000     0.00285476 
H155     H      0.651640000000     0.853760000000     0.121660000000     0.0373704  
H156     H      0.694500000000     0.885940000000     0.123670000000     0.0362508  
H157     H      0.679550000000     0.830360000000     0.982820000000     0.0411885  
H158     H      0.652690000000     0.833970000000     0.934940000000     0.059756   
H159     H      0.659490000000     0.811230000000     0.147520000000     0.0400969  
H160     H      0.619560000000     0.846260000000     0.887800000000     0.13874    
H161     H      0.771230000000     0.726690000000     0.148510000000     0.0408251  
H162     H      0.700680000000     0.731280000000     0.220720000000     0.035332   
H163     H      0.772670000000     0.794470000000     0.227050000000     0.0496364  
H164     H      0.783570000000     0.661050000000     0.212400000000     0.0389339  
H165     H      0.694900000000     0.765470000000     0.204830000000     0.0369883  
H166     H      0.821400000000     0.740550000000     0.198190000000     0.0348138  
H167     H      0.753630000000     0.672150000000     0.192490000000     0.0348413  
H168     H      0.844200000000     0.720130000000     0.172180000000     0.0405701  
H169     H      0.749930000000     0.750620000000     0.157550000000     0.0446058  
H170     H      0.682420000000     0.755320000000     0.248290000000     0.0413736  
H171     H      0.771420000000     0.715900000000     0.261130000000     0.0452135  
H172     H      0.713740000000     0.744510000000     0.263220000000     0.039473   
H173     H      0.776670000000     0.651830000000     0.167000000000     0.0407759  
H174     H      0.746500000000     0.811110000000     0.210700000000     0.00111157 
H175     H      0.809720000000     0.725800000000     0.155980000000     0.0369406  
H176     H      0.770890000000     0.686560000000     0.152730000000     0.0371752  
H177     H      0.749840000000     0.739460000000     0.270170000000     0.0417935  
H178     H      0.755310000000     0.780460000000     0.266820000000     0.0603964  
H179     H      0.832580000000     0.710460000000     0.216140000000     0.038438   
H180     H      0.772890000000     0.834280000000     0.250800000000     0.138565   
H181     H      0.593620000000     0.946790000000     0.335570000000     0.0409841  
H182     H      0.670110000000     0.930580000000     0.330830000000     0.0360092  
H183     H      0.597970000000     0.867270000000     0.330550000000     0.0493766  
H184     H      0.600340000000     0.987020000000     0.454870000000     0.0398682  
H185     H      0.669140000000     0.906010000000     0.280910000000     0.0370664  
H186     H      0.556140000000     0.915340000000     0.406500000000     0.0347253  
H187     H      0.622390000000     0.985280000000     0.403640000000     0.0355947  
H188     H      0.531860000000     0.935890000000     0.424620000000     0.0409096  
H189     H      0.611880000000     0.925870000000     0.302250000000     0.044673   
H190     H      0.688670000000     0.904390000000     0.314550000000     0.0431109  
H191     H      0.614120000000     0.926050000000     0.433440000000     0.0452588  
H192     H      0.662800000000     0.905650000000     0.361520000000     0.0397216  
H193     H      0.598020000000     0.006140000000     0.421270000000     0.0432443  
H194     H      0.619200000000     0.861450000000     0.281170000000     0.000978076
H195     H      0.558730000000     0.938890000000     0.376120000000     0.0374539  
H196     H      0.596980000000     0.979180000000     0.374340000000     0.0377886  
H197     H      0.632170000000     0.904990000000     0.400230000000     0.0414758  
H198     H      0.620870000000     0.869280000000     0.361820000000     0.0597191  
H199     H      0.553690000000     0.937410000000     0.457100000000     0.0385618  
H200     H      0.596840000000     0.826740000000     0.309030000000     0.137559   
H201     H      0.014460000000     0.538870000000     0.787710000000     0.0413467  
H202     H      0.055860000000     0.556580000000     0.660600000000     0.0354425  
H203     H      0.977010000000     0.521420000000     0.663450000000     0.0501604  
H204     H      0.055050000000     0.494950000000     0.843270000000     0.0363367  
H205     H      0.042380000000     0.578570000000     0.621160000000     0.0350743  
H206     H      0.983820000000     0.472570000000     0.803260000000     0.0351864  
H207     H      0.060210000000     0.528190000000     0.804270000000     0.0348725  
H208     H      0.985290000000     0.465690000000     0.868270000000     0.0416695  
H209     H      0.012870000000     0.555960000000     0.729880000000     0.0446391  
H210     H      0.056040000000     0.564030000000     0.595990000000     0.040805   
H211     H      0.021760000000     0.481060000000     0.736000000000     0.0446278  
H212     H      0.038160000000     0.528130000000     0.636030000000     0.0406649  
H213     H      0.062740000000     0.522010000000     0.869080000000     0.0411521  
H214     H      0.992860000000     0.556580000000     0.622310000000     0.00109257 
H215     H      0.993160000000     0.500310000000     0.828900000000     0.0391512  
H216     H      0.038550000000     0.533260000000     0.829840000000     0.0390007  
H217     H      0.018660000000     0.497270000000     0.678220000000     0.0417294  
H218     H      0.991050000000     0.506950000000     0.638300000000     0.060368   
H219     H      0.005620000000     0.458820000000     0.842740000000     0.0385235  
H220     H      0.957420000000     0.525600000000     0.605120000000     0.13806    
H221     H      0.977770000000     0.489750000000     0.266520000000     0.0409795  
H222     H      0.040310000000     0.546000000000     0.149650000000     0.0347861  
H223     H      0.997810000000     0.467860000000     0.161580000000     0.0486213  
H224     H      0.009030000000     0.550010000000     0.356640000000     0.0376923  
H225     H      0.016370000000     0.532380000000     0.096590000000     0.0345504  
H226     H      0.045710000000     0.510340000000     0.317640000000     0.0339206  
H227     H      0.986820000000     0.526110000000     0.306430000000     0.035001   
H228     H      0.041740000000     0.510610000000     0.383710000000     0.0395153  
H229     H      0.977810000000     0.485830000000     0.202600000000     0.0434465  
H230     H      0.047600000000     0.540500000000     0.085690000000     0.0410031  
H231     H      0.057420000000     0.539320000000     0.264930000000     0.0436027  
H232     H      0.054320000000     0.526940000000     0.141960000000     0.0388996  
H233     H      0.981390000000     0.523580000000     0.372810000000     0.0430413  
H234     H      0.984970000000     0.476630000000     0.105500000000     0.00266392 
H235     H      0.014880000000     0.488760000000     0.333190000000     0.0399934  
H236     H      0.981250000000     0.497340000000     0.326340000000     0.0383027  
H237     H      0.057840000000     0.533030000000     0.201630000000     0.0406545  
H238     H      0.030050000000     0.482630000000     0.148890000000     0.0612866  
H239     H      0.052620000000     0.540260000000     0.363110000000     0.0399559  
H240     H      0.988560000000     0.443660000000     0.101990000000     0.139977   
H241     H      0.962000000000     0.554920000000     0.070970000000     0.0415903  
H242     H      0.947000000000     0.628940000000     0.096940000000     0.0352187  
H243     H      0.881930000000     0.558060000000     0.099740000000     0.0503134  
H244     H      0.991230000000     0.564660000000     0.944210000000     0.0364395  
H245     H      0.925210000000     0.625440000000     0.151990000000     0.0358986  
H246     H      0.926420000000     0.519100000000     0.999790000000     0.035447   
H247     H      0.993730000000     0.588420000000     0.996860000000     0.0348427  
H248     H      0.947930000000     0.497830000000     0.974440000000     0.0420078  
H249     H      0.943510000000     0.571010000000     0.113280000000     0.0449077  
H250     H      0.924310000000     0.648190000000     0.123850000000     0.0416257  
H251     H      0.931930000000     0.577030000000     0.984470000000     0.0448584  
H252     H      0.920370000000     0.623830000000     0.070970000000     0.0399057  
H253     H      0.016460000000     0.568190000000     0.971770000000     0.0410618  
H254     H      0.882780000000     0.579910000000     0.153730000000     0.000626557
H255     H      0.951880000000     0.522690000000     0.027230000000     0.0401175  
H256     H      0.992590000000     0.564650000000     0.025510000000     0.0388767  
H257     H      0.913390000000     0.593070000000     0.026770000000     0.0417367  
H258     H      0.882090000000     0.581850000000     0.072260000000     0.060026   
H259     H      0.949240000000     0.521600000000     0.946000000000     0.0364968  
H260     H      0.845140000000     0.556980000000     0.134030000000     0.137486   
H261     H      0.364450000000     0.192620000000     0.836770000000     0.0408028  
H262     H      0.324340000000     0.146780000000     0.946870000000     0.035059   
H263     H      0.401150000000     0.170640000000     0.953260000000     0.048433   
H264     H      0.344940000000     0.126720000000     0.739720000000     0.0379991  
H265     H      0.334950000000     0.170660000000     0.998730000000     0.0399598  
H266     H      0.405240000000     0.184140000000     0.795560000000     0.0349388  
H267     H      0.327530000000     0.133130000000     0.793460000000     0.0343675  
H268     H      0.404620000000     0.192510000000     0.730840000000     0.0413237  
H269     H      0.363980000000     0.194880000000     0.901440000000     0.0449322  
H270     H      0.321520000000     0.139440000000     0.014050000000     0.0392848  
H271     H      0.364950000000     0.123670000000     0.844070000000     0.0446087  
H272     H      0.335120000000     0.126560000000     0.963040000000     0.0390018  
H273     H      0.326240000000     0.140470000000     0.728700000000     0.0404069  
H274     H      0.397510000000     0.187830000000     0.006200000000     0.00325826 
H275     H      0.384210000000     0.195210000000     0.783980000000     0.0377197  
H276     H      0.338660000000     0.165270000000     0.782880000000     0.0380879  
H277     H      0.362890000000     0.125150000000     0.908740000000     0.0413598  
H278     H      0.377980000000     0.139510000000     0.964910000000     0.0582203  
H279     H      0.396940000000     0.161290000000     0.740810000000     0.0371761  
H280     H      0.413730000000     0.165050000000     0.020130000000     0.139256   
H281     H      0.361720000000     0.238310000000     0.410500000000     0.04091    
H282     H      0.403990000000     0.228310000000     0.292120000000     0.0362057  
H283     H      0.325640000000     0.197760000000     0.293480000000     0.0499953  
H284     H      0.397060000000     0.205660000000     0.500950000000     0.0393477  
H285     H      0.392370000000     0.242190000000     0.239140000000     0.0368698  
H286     H      0.325010000000     0.176210000000     0.445140000000     0.0346034  
H287     H      0.401380000000     0.230680000000     0.451220000000     0.0350416  
H288     H      0.322150000000     0.177830000000     0.512170000000     0.038913   
H289     H      0.362860000000     0.244080000000     0.346110000000     0.0446764  
H290     H      0.403200000000     0.221320000000     0.227300000000     0.0432938  
H291     H      0.365190000000     0.171380000000     0.395690000000     0.0453168  
H292     H      0.384420000000     0.196180000000     0.279940000000     0.0415315  
H293     H      0.396630000000     0.232170000000     0.518260000000     0.0402982  
H294     H      0.341490000000     0.222310000000     0.239500000000     0.002642   
H295     H      0.334680000000     0.206490000000     0.463110000000     0.0369592  
H296     H      0.377750000000     0.237320000000     0.466360000000     0.0359485  
H297     H      0.364910000000     0.176340000000     0.331480000000     0.0420688  
H298     H      0.338120000000     0.178080000000     0.281410000000     0.0606185  
H299     H      0.338620000000     0.163200000000     0.495390000000     0.0403253  
H300     H      0.305540000000     0.189270000000     0.231030000000     0.138632   
H301     H      0.425270000000     0.088600000000     0.613380000000     0.0409554  
H302     H      0.428710000000     0.020380000000     0.533150000000     0.0354849  
H303     H      0.494040000000     0.090870000000     0.536720000000     0.0503078  
H304     H      0.366850000000     0.112730000000     0.552110000000     0.0389697  
H305     H      0.461900000000     0.012480000000     0.548450000000     0.0374303  
H306     H      0.445600000000     0.142020000000     0.568030000000     0.0351179  
H307     H      0.373190000000     0.078930000000     0.568480000000     0.0348685  
H308     H      0.428910000000     0.167350000000     0.596060000000     0.0410759  
H309     H      0.447340000000     0.065640000000     0.602190000000     0.0447728  
H310     H      0.452350000000     0.002440000000     0.503870000000     0.0415624  
H311     H      0.419000000000     0.096220000000     0.501080000000     0.0454161  
H312     H      0.443730000000     0.035770000000     0.492530000000     0.0396854  
H313     H      0.356420000000     0.104400000000     0.596860000000     0.0401946  
H314     H      0.508080000000     0.061930000000     0.549640000000     0.00339915 
H315     H      0.429630000000     0.129740000000     0.609380000000     0.0373432  
H316     H      0.388030000000     0.093380000000     0.609640000000     0.0371536  
H317     H      0.440700000000     0.073010000000     0.489850000000     0.0419496  
H318     H      0.481140000000     0.076710000000     0.494650000000     0.0606895  
H319     H      0.418610000000     0.157680000000     0.551590000000     0.0383973  
H320     H      0.534080000000     0.090820000000     0.514550000000     0.14009    
H321     H      0.133870000000     0.398780000000     0.940030000000     0.0405655  
H322     H      0.119220000000     0.472960000000     0.958850000000     0.0352648  
H323     H      0.053300000000     0.402930000000     0.967700000000     0.050775   
H324     H      0.160090000000     0.405360000000     0.811180000000     0.0377862  
H325     H      0.096780000000     0.472260000000     0.012330000000     0.0370077  
H326     H      0.099300000000     0.358180000000     0.875080000000     0.0352891  
H327     H      0.162320000000     0.429960000000     0.862330000000     0.0345648  
H328     H      0.123240000000     0.338820000000     0.850970000000     0.0428357  
H329     H      0.115910000000     0.416730000000     0.980120000000     0.0443811  
H330     H      0.097220000000     0.494350000000     0.981320000000     0.0417722  
H331     H      0.100620000000     0.414780000000     0.850990000000     0.0449589  
H332     H      0.093080000000     0.467280000000     0.931290000000     0.0400782  
H333     H      0.186810000000     0.411710000000     0.837400000000     0.0413643  
H334     H      0.056940000000     0.429590000000     0.017950000000     0.00216886 
H335     H      0.127160000000     0.366080000000     0.899970000000     0.0380046  
H336     H      0.164470000000     0.408500000000     0.892290000000     0.0381285  
H337     H      0.082890000000     0.432950000000     0.891000000000     0.0419166  
H338     H      0.053190000000     0.425030000000     0.936790000000     0.0608049  
H339     H      0.119070000000     0.358210000000     0.819700000000     0.039333   
H340     H      0.018550000000     0.404210000000     0.003020000000     0.137785   
H341     H      0.316690000000     0.254490000000     0.754050000000     0.0406671  
H342     H      0.302410000000     0.332830000000     0.773060000000     0.0352358  
H343     H      0.240220000000     0.259980000000     0.774590000000     0.049969   
H344     H      0.352650000000     0.263150000000     0.631940000000     0.0380594  
H345     H      0.278510000000     0.328960000000     0.825950000000     0.0359435  
H346     H      0.281020000000     0.222260000000     0.679020000000     0.0347728  
H347     H      0.354180000000     0.283940000000     0.686730000000     0.0349866  
H348     H      0.297640000000     0.196290000000     0.654300000000     0.041098   
H349     H      0.298220000000     0.272340000000     0.793340000000     0.0443452  
H350     H      0.276300000000     0.349930000000     0.795570000000     0.0414799  
H351     H      0.294330000000     0.280740000000     0.663330000000     0.0449832  
H352     H      0.276160000000     0.325700000000     0.744840000000     0.0395311  
H353     H      0.371740000000     0.258190000000     0.662850000000     0.041229   
H354     H      0.237860000000     0.281440000000     0.827090000000     0.000316086
H355     H      0.303250000000     0.220410000000     0.707870000000     0.0381346  
H356     H      0.346040000000     0.256510000000     0.712500000000     0.0374813  
H357     H      0.275240000000     0.297940000000     0.702510000000     0.0416399  
H358     H      0.239690000000     0.282720000000     0.745530000000     0.0605271  
H359     H      0.303170000000     0.221950000000     0.626500000000     0.0378493  
H360     H      0.201270000000     0.256460000000     0.805550000000     0.137419   
H361     H      0.528510000000     0.514780000000     0.669410000000     0.0410943  
H362     H      0.487570000000     0.518930000000     0.791600000000     0.0351895  
H363     H      0.536750000000     0.490190000000     0.793730000000     0.0494254  
H364     H      0.451750000000     0.473410000000     0.595220000000     0.037735   
H365     H      0.518190000000     0.542790000000     0.835760000000     0.0361361  
H366     H      0.496200000000     0.449360000000     0.644890000000     0.0349773  
H367     H      0.474120000000     0.503910000000     0.641020000000     0.0351146  
H368     H      0.495520000000     0.446980000000     0.578920000000     0.0417916  
H369     H      0.540370000000     0.527960000000     0.730850000000     0.0446565  
H370     H      0.489400000000     0.522460000000     0.857470000000     0.0413572  
H371     H      0.459640000000     0.452220000000     0.705200000000     0.0447511  
H372     H      0.478540000000     0.490130000000     0.814320000000     0.0390792  
H373     H      0.473270000000     0.502420000000     0.574980000000     0.0416444  
H374     H      0.552610000000     0.522640000000     0.837900000000     0.00359734 
H375     H      0.517040000000     0.478870000000     0.624560000000     0.0389787  
H376     H      0.503790000000     0.511440000000     0.621920000000     0.0391313  
H377     H      0.472300000000     0.464430000000     0.766740000000     0.0413674  
H378     H      0.506700000000     0.473340000000     0.814710000000     0.0599997  
H379     H      0.465590000000     0.438420000000     0.597740000000     0.0394302  
H380     H      0.554750000000     0.490730000000     0.856700000000     0.139562   
H381     H      0.509550000000     0.543130000000     0.199020000000     0.0402922  
H382     H      0.512520000000     0.469910000000     0.290280000000     0.0353333  
H383     H      0.544700000000     0.547360000000     0.305480000000     0.0478977  
H384     H      0.492330000000     0.504340000000     0.087660000000     0.0390822  
H385     H      0.496390000000     0.468660000000     0.346220000000     0.037424   
H386     H      0.566130000000     0.540420000000     0.144740000000     0.0337841  
H387     H      0.488830000000     0.515910000000     0.145200000000     0.0345819  
H388     H      0.567920000000     0.552590000000     0.080310000000     0.0386205  
H389     H      0.507940000000     0.534530000000     0.261990000000     0.0435766  
H390     H      0.523980000000     0.467620000000     0.356020000000     0.040819   
H391     H      0.545360000000     0.499760000000     0.180630000000     0.0440108  
H392     H      0.544460000000     0.488850000000     0.304250000000     0.0370043  
H393     H      0.494430000000     0.533780000000     0.081800000000     0.0398711  
H394     H      0.518430000000     0.530800000000     0.355680000000     0.00436438 
H395     H      0.554680000000     0.561400000000     0.136280000000     0.0378386  
H396     H      0.511730000000     0.548130000000     0.138410000000     0.0351181  
H397     H      0.546350000000     0.493600000000     0.243970000000     0.0407518  
H398     H      0.561740000000     0.531590000000     0.314460000000     0.0603321  
H399     H      0.552560000000     0.520020000000     0.089300000000     0.0419582  
H400     H      0.554630000000     0.560640000000     0.372380000000     0.139282   
H401     H      0.882340000000     0.233820000000     0.942870000000     0.0412954  
H402     H      0.896950000000     0.212330000000     0.820050000000     0.0353494  
H403     H      0.838360000000     0.228910000000     0.818200000000     0.050699   
H404     H      0.838900000000     0.150190000000     0.010770000000     0.0391706  
H405     H      0.904670000000     0.242090000000     0.772730000000     0.0362499  
H406     H      0.826750000000     0.208920000000     0.975450000000     0.035496   
H407     H      0.868510000000     0.172280000000     0.964510000000     0.0346775  
H408     H      0.827990000000     0.205440000000     0.041820000000     0.0423444  
H409     H      0.891260000000     0.247650000000     0.881070000000     0.0447527  
H410     H      0.898820000000     0.212970000000     0.754710000000     0.0417567  
H411     H      0.823060000000     0.162530000000     0.908430000000     0.0452267  
H412     H      0.867550000000     0.189900000000     0.800760000000     0.0404414  
H413     H      0.869080000000     0.168070000000     0.030620000000     0.0404183  
H414     H      0.868090000000     0.252150000000     0.771060000000     0.00030939 
H415     H      0.857620000000     0.222560000000     0.994070000000     0.0376118  
H416     H      0.881620000000     0.201410000000     0.987780000000     0.0379013  
H417     H      0.832740000000     0.175920000000     0.846650000000     0.041951   
H418     H      0.832500000000     0.199770000000     0.799650000000     0.0602109  
H419     H      0.809650000000     0.176610000000     0.019140000000     0.039337   
H420     H      0.829990000000     0.240920000000     0.756450000000     0.13676    
H421     H      0.865650000000     0.190680000000     0.356550000000     0.0415453  
H422     H      0.812500000000     0.173140000000     0.472610000000     0.0359064  
H423     H      0.870410000000     0.156030000000     0.478140000000     0.0487015  
H424     H      0.794640000000     0.141840000000     0.272440000000     0.0388823  
H425     H      0.834960000000     0.196860000000     0.522140000000     0.0376484  
H426     H      0.852830000000     0.133920000000     0.317640000000     0.0352158  
H427     H      0.808430000000     0.168100000000     0.324230000000     0.0358521  
H428     H      0.855520000000     0.139510000000     0.251590000000     0.0411857  
H429     H      0.871160000000     0.198480000000     0.420450000000     0.0450475  
H430     H      0.808920000000     0.169700000000     0.539950000000     0.0410381  
H431     H      0.804550000000     0.116960000000     0.376460000000     0.0455886  
H432     H      0.807150000000     0.144350000000     0.491660000000     0.0383936  
H433     H      0.810410000000     0.173680000000     0.258740000000     0.0436886  
H434     H      0.880330000000     0.183610000000     0.526620000000     0.00346031 
H435     H      0.865890000000     0.165810000000     0.304010000000     0.0384603  
H436     H      0.839810000000     0.185790000000     0.307500000000     0.0397185  
H437     H      0.810740000000     0.124400000000     0.440410000000     0.041647   
H438     H      0.839690000000     0.134600000000     0.494160000000     0.0592517  
H439     H      0.824580000000     0.118900000000     0.267620000000     0.0405811  
H440     H      0.882080000000     0.151270000000     0.544290000000     0.138876   
H441     H      0.191390000000     0.344630000000     0.521600000000     0.0411908  
H442     H      0.205770000000     0.381800000000     0.644010000000     0.0348608  
H443     H      0.150830000000     0.305760000000     0.647300000000     0.0499127  
H444     H      0.134720000000     0.368690000000     0.451580000000     0.0377289  
H445     H      0.220090000000     0.363580000000     0.687760000000     0.0378835  
H446     H      0.134880000000     0.306730000000     0.494910000000     0.0350842  
H447     H      0.166820000000     0.385020000000     0.497130000000     0.0345503  
H448     H      0.132690000000     0.306830000000     0.428890000000     0.0413075  
H449     H      0.203370000000     0.342730000000     0.582870000000     0.0445587  
H450     H      0.209820000000     0.382380000000     0.709840000000     0.0403901  
H451     H      0.128170000000     0.349400000000     0.558950000000     0.0447239  
H452     H      0.176800000000     0.372030000000     0.666880000000     0.0394276  
H453     H      0.164860000000     0.386170000000     0.431170000000     0.0407459  
H454     H      0.180160000000     0.309720000000     0.692010000000     0.0028074  
H455     H      0.164870000000     0.325620000000     0.474340000000     0.0386509  
H456     H      0.183860000000     0.372070000000     0.475940000000     0.038756   
H457     H      0.141060000000     0.349130000000     0.620200000000     0.0415363  
H458     H      0.145020000000     0.328430000000     0.668050000000     0.0595857  
H459     H      0.114260000000     0.317970000000     0.450020000000     0.0367682  
H460     H      0.142500000000     0.286500000000     0.711210000000     0.139431   
H461     H      0.172090000000     0.352760000000     0.023290000000     0.0406886  
H462     H      0.171290000000     0.313830000000     0.148350000000     0.0352718  
H463     H      0.201880000000     0.391690000000     0.145410000000     0.0488524  
H464     H      0.213960000000     0.315890000000     0.952380000000     0.0374757  
H465     H      0.148480000000     0.321650000000     0.192580000000     0.0360155  
H466     H      0.235820000000     0.386560000000     0.994010000000     0.0345371  
H467     H      0.184410000000     0.309250000000     0.998960000000     0.0351512  
H468     H      0.236160000000     0.384650000000     0.927890000000     0.0403402  
H469     H      0.160590000000     0.354020000000     0.085020000000     0.044341   
H470     H      0.169810000000     0.314700000000     0.214690000000     0.0413516  
H471     H      0.236960000000     0.350090000000     0.058420000000     0.0447579  
H472     H      0.200790000000     0.333900000000     0.169340000000     0.0388395  
H473     H      0.184090000000     0.306370000000     0.933060000000     0.0424174  
H474     H      0.170780000000     0.378190000000     0.191080000000     0.00215008 
H475     H      0.205300000000     0.374860000000     0.974830000000     0.0380828  
H476     H      0.174950000000     0.329150000000     0.977460000000     0.0384394  
H477     H      0.226180000000     0.352710000000     0.120080000000     0.0414103  
H478     H      0.218490000000     0.378440000000     0.166870000000     0.059583   
H479     H      0.247780000000     0.366540000000     0.949070000000     0.0378503  
H480     H      0.204430000000     0.411410000000     0.207900000000     0.138447   
H481     H      0.038930000000     0.312570000000     0.201130000000     0.0411667  
H482     H      0.964920000000     0.235700000000     0.177340000000     0.0348793  
H483     H      0.938480000000     0.285560000000     0.197560000000     0.0501313  
H484     H      0.063220000000     0.292000000000     0.322550000000     0.0378022  
H485     H      0.937290000000     0.232750000000     0.129430000000     0.0357001  
H486     H      0.050610000000     0.345310000000     0.271870000000     0.0353075  
H487     H      0.038600000000     0.271940000000     0.270470000000     0.0344628  
H488     H      0.095090000000     0.361480000000     0.290840000000     0.0415272  
H489     H      0.001000000000     0.293740000000     0.165080000000     0.044487   
H490     H      0.924130000000     0.204440000000     0.154240000000     0.0417961  
H491     H      0.994640000000     0.281750000000     0.295130000000     0.0447599  
H492     H      0.940700000000     0.227380000000     0.209880000000     0.0406077  
H493     H      0.081960000000     0.287060000000     0.291000000000     0.0410223  
H494     H      0.918510000000     0.263420000000     0.143200000000     0.000758293
H495     H      0.068520000000     0.337770000000     0.241940000000     0.0377816  
H496     H      0.061590000000     0.294970000000     0.241370000000     0.0384975  
H497     H      0.956870000000     0.261870000000     0.258970000000     0.0414519  
H498     H      0.925490000000     0.257050000000     0.222420000000     0.0593874  
H499     H      0.072330000000     0.341990000000     0.322880000000     0.0379385  
H500     H      0.893140000000     0.269740000000     0.175320000000     0.137654   
H501     H      0.319580000000     0.403900000000     0.330600000000     0.0414452  
H502     H      0.388990000000     0.468050000000     0.411160000000     0.0352296  
H503     H      0.383020000000     0.397340000000     0.416210000000     0.0491664  
H504     H      0.244560000000     0.403710000000     0.386280000000     0.0384611  
H505     H      0.430210000000     0.476000000000     0.398720000000     0.0372455  
H506     H      0.274280000000     0.354070000000     0.374130000000     0.0348572  
H507     H      0.287780000000     0.427840000000     0.371620000000     0.0350138  
H508     H      0.233030000000     0.339610000000     0.342980000000     0.0407122  
H509     H      0.363990000000     0.421580000000     0.344670000000     0.0449872  
H510     H      0.430080000000     0.486710000000     0.442610000000     0.041168   
H511     H      0.302730000000     0.399750000000     0.441840000000     0.0447653  
H512     H      0.387990000000     0.454150000000     0.453430000000     0.0388377  
H513     H      0.246520000000     0.412960000000     0.340970000000     0.0430158  
H514     H      0.426320000000     0.424640000000     0.403940000000     0.00157303 
H515     H      0.276440000000     0.369070000000     0.332430000000     0.0378092  
H516     H      0.284020000000     0.411180000000     0.331000000000     0.0384746  
H517     H      0.347030000000     0.417310000000     0.455930000000     0.0413254  
H518     H      0.383880000000     0.413400000000     0.456230000000     0.0593926  
H519     H      0.234550000000     0.349630000000     0.387780000000     0.0385174  
H520     H      0.422390000000     0.398190000000     0.444450000000     0.138282   
H521     H      0.558180000000     0.981960000000     0.760690000000     0.0412125  
H522     H      0.512420000000     0.947540000000     0.633100000000     0.0355332  
H523     H      0.567830000000     0.023070000000     0.645740000000     0.050229   
H524     H      0.488290000000     0.958080000000     0.845650000000     0.0379552  
H525     H      0.542180000000     0.959130000000     0.584880000000     0.035263   
H526     H      0.536370000000     0.024660000000     0.786380000000     0.0347958  
H527     H      0.507640000000     0.947390000000     0.799250000000     0.034983   
H528     H      0.539150000000     0.030220000000     0.852140000000     0.0403273  
H529     H      0.566460000000     0.981010000000     0.697470000000     0.0445522  
H530     H      0.512600000000     0.952880000000     0.567900000000     0.0412286  
H531     H      0.493300000000     0.987570000000     0.735270000000     0.044933   
H532     H      0.504890000000     0.971020000000     0.620340000000     0.0402115  
H533     H      0.511710000000     0.953170000000     0.865620000000     0.0411236  
H534     H      0.577380000000     0.006930000000     0.592570000000     0.000669509
H535     H      0.554950000000     0.013430000000     0.807550000000     0.0381824  
H536     H      0.538560000000     0.969070000000     0.814820000000     0.0371057  
H537     H      0.502440000000     0.988220000000     0.672230000000     0.0416772  
H538     H      0.537840000000     0.015990000000     0.628450000000     0.0608373  
H539     H      0.507930000000     0.012830000000     0.835390000000     0.0390452  
H540     H      0.587520000000     0.045600000000     0.586860000000     0.137806   
H541     H      0.483320000000     0.018730000000     0.180850000000     0.0410649  
H542     H      0.479450000000     0.980770000000     0.298880000000     0.0351567  
H543     H      0.535630000000     0.056600000000     0.301380000000     0.0510765  
H544     H      0.526860000000     0.983580000000     0.100560000000     0.0387611  
H545     H      0.473280000000     0.999910000000     0.351270000000     0.0369871  
H546     H      0.533630000000     0.051820000000     0.139050000000     0.0351152  
H547     H      0.500540000000     0.974000000000     0.151550000000     0.0343757  
H548     H      0.526770000000     0.045910000000     0.072820000000     0.0408966  
H549     H      0.478460000000     0.021730000000     0.244760000000     0.0447439  
H550     H      0.482100000000     0.977480000000     0.363790000000     0.0413437  
H551     H      0.547790000000     0.011080000000     0.199950000000     0.0448303  
H552     H      0.510370000000     0.988590000000     0.312990000000     0.0401234  
H553     H      0.495140000000     0.968520000000     0.085680000000     0.0400547  
H554     H      0.508930000000     0.047670000000     0.353260000000     0.00184063 
H555     H      0.501820000000     0.031650000000     0.125480000000     0.0368383  
H556     H      0.483000000000     0.987100000000     0.132400000000     0.0376892  
H557     H      0.542120000000     0.012650000000     0.263780000000     0.0417224  
H558     H      0.543810000000     0.033680000000     0.314540000000     0.0604782  
H559     H      0.549950000000     0.039730000000     0.090490000000     0.038074   
H560     H      0.547460000000     0.074860000000     0.364430000000     0.139034   
H561     H      0.659050000000     0.082450000000     0.043650000000     0.0408747  
H562     H      0.708250000000     0.091800000000     0.130420000000     0.033744   
H563     H      0.751400000000     0.074300000000     0.061400000000     0.047968   
H564     H      0.605330000000     0.994850000000     0.973810000000     0.0379027  
H565     H      0.748400000000     0.127200000000     0.130910000000     0.0416487  
H566     H      0.647190000000     0.072160000000     0.977490000000     0.0349276  
H567     H      0.625330000000     0.004370000000     0.031750000000     0.0338372  
H568     H      0.603780000000     0.055230000000     0.954440000000     0.0409005  
H569     H      0.697150000000     0.101060000000     0.077380000000     0.0428265  
H570     H      0.747280000000     0.110600000000     0.170200000000     0.0372853  
H571     H      0.670800000000     0.021860000000     0.014890000000     0.0437363  
H572     H      0.718680000000     0.070960000000     0.144060000000     0.0483581  
H573     H      0.582370000000     0.986490000000     0.008190000000     0.0402095  
H574     H      0.784230000000     0.090010000000     0.098870000000     0.00457221 
H575     H      0.623920000000     0.062380000000     0.012080000000     0.0390121  
H576     H      0.611440000000     0.022760000000     0.043950000000     0.0400982  
H577     H      0.707460000000     0.038920000000     0.051800000000     0.0397815  
H578     H      0.733970000000     0.052600000000     0.095990000000     0.0521236  
H579     H      0.618650000000     0.038470000000     0.939500000000     0.0367709  
H580     H      0.769620000000     0.058170000000     0.133700000000     0.138525   
H581     H      0.170830000000     0.835680000000     0.631670000000     0.0408729  
H582     H      0.183650000000     0.885450000000     0.526200000000     0.0347874  
H583     H      0.228340000000     0.852300000000     0.512630000000     0.0490194  
H584     H      0.221390000000     0.901340000000     0.727760000000     0.0385147  
H585     H      0.169560000000     0.863870000000     0.471400000000     0.0376242  
H586     H      0.214970000000     0.837530000000     0.678490000000     0.0354773  
H587     H      0.200310000000     0.897150000000     0.671980000000     0.034411   
H588     H      0.203250000000     0.831820000000     0.742810000000     0.0433203  
H589     H      0.168890000000     0.834370000000     0.566950000000     0.0443542  
H590     H      0.188220000000     0.896250000000     0.461540000000     0.0400928  
H591     H      0.245180000000     0.898750000000     0.626870000000     0.0448787  
H592     H      0.215450000000     0.903550000000     0.511410000000     0.0395009  
H593     H      0.189520000000     0.892750000000     0.736040000000     0.0408876  
H594     H      0.205320000000     0.841040000000     0.458950000000     0.00220147 
H595     H      0.183820000000     0.831620000000     0.687010000000     0.0377394  
H596     H      0.175310000000     0.866570000000     0.683230000000     0.0383556  
H597     H      0.242660000000     0.898370000000     0.562200000000     0.0414715  
H598     H      0.241060000000     0.885010000000     0.505260000000     0.0588692  
H599     H      0.230540000000     0.860860000000     0.732740000000     0.0398237  
H600     H      0.244370000000     0.855800000000     0.446270000000     0.139032   
H601     H      0.131920000000     0.832790000000     0.140300000000     0.0410559  
H602     H      0.136530000000     0.872000000000     0.009030000000     0.035447   
H603     H      0.158900000000     0.818440000000     0.024850000000     0.0499852  
H604     H      0.180680000000     0.905570000000     0.219140000000     0.0371187  
H605     H      0.116780000000     0.839910000000     0.964150000000     0.035026   
H606     H      0.198350000000     0.857300000000     0.160000000000     0.0349308  
H607     H      0.148410000000     0.884390000000     0.175700000000     0.0347129  
H608     H      0.204600000000     0.857100000000     0.225120000000     0.0430594  
H609     H      0.120020000000     0.821480000000     0.078340000000     0.0443023  
H610     H      0.138830000000     0.868590000000     0.943780000000     0.041056   
H611     H      0.200220000000     0.897010000000     0.106760000000     0.0445813  
H612     H      0.167150000000     0.879310000000     0.994200000000     0.0402274  
H613     H      0.153330000000     0.882880000000     0.241850000000     0.0411902  
H614     H      0.130820000000     0.805920000000     0.973810000000     0.000322494
H615     H      0.169680000000     0.838780000000     0.183860000000     0.0392332  
H616     H      0.140700000000     0.854300000000     0.192770000000     0.0374969  
H617     H      0.189110000000     0.884850000000     0.044980000000     0.0416607  
H618     H      0.180550000000     0.847510000000     0.004230000000     0.0607143  
H619     H      0.215970000000     0.887540000000     0.206890000000     0.0382541  
H620     H      0.159740000000     0.796180000000     0.967510000000     0.137282   
H621     H      0.361410000000     0.953450000000     0.983450000000     0.040948   
H622     H      0.289590000000     0.951020000000     0.900690000000     0.0351326  
H623     H      0.294120000000     0.885620000000     0.910470000000     0.0499663  
H624     H      0.445180000000     0.004460000000     0.919630000000     0.0398871  
H625     H      0.248330000000     0.919110000000     0.917320000000     0.0375589  
H626     H      0.389200000000     0.927030000000     0.940980000000     0.0349487  
H627     H      0.407050000000     0.002140000000     0.936820000000     0.0349505  
H628     H      0.431380000000     0.940520000000     0.968320000000     0.040338   
H629     H      0.316380000000     0.933770000000     0.972530000000     0.0447316  
H630     H      0.247710000000     0.926720000000     0.871740000000     0.040761   
H631     H      0.374530000000     0.956150000000     0.871180000000     0.0452764  
H632     H      0.289590000000     0.934470000000     0.861570000000     0.0388593  
H633     H      0.449320000000     0.014680000000     0.964610000000     0.0396626  
H634     H      0.251280000000     0.872500000000     0.923090000000     0.0032881  
H635     H      0.395950000000     0.945070000000     0.980910000000     0.0365811  
H636     H      0.405880000000     0.987620000000     0.978560000000     0.036684   
H637     H      0.329680000000     0.936990000000     0.860190000000     0.041461   
H638     H      0.292700000000     0.897070000000     0.867270000000     0.0600933  
H639     H      0.431510000000     0.947760000000     0.922480000000     0.0391689  
H640     H      0.253730000000     0.845300000000     0.890230000000     0.139513   
H641     H      0.797190000000     0.654670000000     0.945930000000     0.0409987  
H642     H      0.827510000000     0.692680000000     0.825510000000     0.035982   
H643     H      0.803310000000     0.615760000000     0.822370000000     0.0509818  
H644     H      0.875670000000     0.673190000000     0.022110000000     0.0396888  
H645     H      0.798980000000     0.674230000000     0.775710000000     0.037453   
H646     H      0.807360000000     0.614680000000     0.977820000000     0.03563    
H647     H      0.862400000000     0.690850000000     0.976300000000     0.0344642  
H648     H      0.808100000000     0.615420000000     0.044690000000     0.0430673  
H649     H      0.787600000000     0.654590000000     0.882950000000     0.0446037  
H650     H      0.829960000000     0.695070000000     0.759890000000     0.0442234  
H651     H      0.864890000000     0.654960000000     0.918550000000     0.04494    
H652     H      0.848470000000     0.683050000000     0.808110000000     0.0420188  
H653     H      0.863790000000     0.691040000000     0.043000000000     0.039608   
H654     H      0.783840000000     0.625920000000     0.773780000000     0.000202445
H655     H      0.801130000000     0.637330000000     0.997860000000     0.0368484  
H656     H      0.832660000000     0.680890000000     0.996950000000     0.0376545  
H657     H      0.856230000000     0.656710000000     0.855710000000     0.0422417  
H658     H      0.834030000000     0.637270000000     0.805840000000     0.0611353  
H659     H      0.835400000000     0.618300000000     0.024020000000     0.0406875  
H660     H      0.791800000000     0.596740000000     0.759850000000     0.136977   
H661     H      0.882440000000     0.695690000000     0.360750000000     0.0407491  
H662     H      0.849900000000     0.690230000000     0.471890000000     0.035432   
H663     H      0.892110000000     0.654670000000     0.491640000000     0.0567658  
H664     H      0.843700000000     0.610570000000     0.284700000000     0.0392374  
H665     H      0.875890000000     0.709570000000     0.523720000000     0.0373998  
H666     H      0.905330000000     0.676750000000     0.321070000000     0.0348739  
H667     H      0.828160000000     0.624910000000     0.332960000000     0.0343182  
H668     H      0.900710000000     0.673810000000     0.255060000000     0.0412567  
H669     H      0.885530000000     0.705140000000     0.423600000000     0.0437253  
H670     H      0.843580000000     0.692430000000     0.536440000000     0.0433185  
H671     H      0.852710000000     0.618110000000     0.385160000000     0.0444702  
H672     H      0.834980000000     0.659970000000     0.492230000000     0.0425624  
H673     H      0.823100000000     0.620660000000     0.267550000000     0.0407723  
H674     H      0.902780000000     0.686750000000     0.535560000000    -0.00171618 
H675     H      0.882600000000     0.684390000000     0.304300000000     0.0380635  
H676     H      0.837790000000     0.654240000000     0.311580000000     0.0395963  
H677     H      0.853300000000     0.627210000000     0.447810000000     0.0426274  
H678     H      0.859640000000     0.639310000000     0.504580000000     0.0628185  
H679     H      0.894670000000     0.645480000000     0.275970000000     0.037546   
H680     H      0.900290000000     0.663180000000     0.578650000000     0.146845   
H681     H      0.634240000000     0.548920000000     0.593180000000     0.0408608  
H682     H      0.726650000000     0.565950000000     0.595000000000     0.0359198  
H683     H      0.718680000000     0.629640000000     0.592800000000     0.0496578  
H684     H      0.598930000000     0.510130000000     0.472870000000     0.0410016  
H685     H      0.751200000000     0.591000000000     0.643840000000     0.0391483  
H686     H      0.624790000000     0.579480000000     0.526110000000     0.0353175  
H687     H      0.624550000000     0.511280000000     0.521700000000     0.0351568  
H688     H      0.579370000000     0.557600000000     0.510680000000     0.0424082  
H689     H      0.674210000000     0.570370000000     0.624760000000     0.0449364  
H690     H      0.771910000000     0.592400000000     0.609710000000     0.0435718  
H691     H      0.673180000000     0.570040000000     0.493530000000     0.0458407  
H692     H      0.743990000000     0.590250000000     0.563320000000     0.0394955  
H693     H      0.578970000000     0.489020000000     0.506200000000     0.0411175  
H694     H      0.746420000000     0.636900000000     0.641560000000     0.00205494 
H695     H      0.605400000000     0.554800000000     0.556200000000     0.0372121  
H696     H      0.605290000000     0.515330000000     0.553690000000     0.0371625  
H697     H      0.713110000000     0.591230000000     0.525010000000     0.041672   
H698     H      0.738930000000     0.626610000000     0.561570000000     0.0596971  
H699     H      0.599160000000     0.557750000000     0.476000000000     0.0424393  
H700     H      0.759200000000     0.670650000000     0.611090000000     0.138539   
H701     H      0.047930000000     0.779930000000     0.716190000000     0.0407619  
H702     H      0.960870000000     0.698640000000     0.713610000000     0.0356745  
H703     H      0.958080000000     0.765190000000     0.709380000000     0.0494382  
H704     H      0.082080000000     0.776990000000     0.837470000000     0.0392366  
H705     H      0.935550000000     0.694460000000     0.662880000000     0.0361741  
H706     H      0.053230000000     0.818230000000     0.784350000000     0.0346576  
H707     H      0.058540000000     0.752910000000     0.787220000000     0.0349056  
H708     H      0.098270000000     0.843630000000     0.801840000000     0.040676   
H709     H      0.008700000000     0.757980000000     0.682930000000     0.044573   
H710     H      0.915880000000     0.674230000000     0.697080000000     0.0430406  
H711     H      0.006800000000     0.759080000000     0.814090000000     0.0449853  
H712     H      0.940560000000     0.702990000000     0.743210000000     0.0394474  
H713     H      0.103560000000     0.778050000000     0.804810000000     0.0417333  
H714     H      0.932680000000     0.740900000000     0.660460000000     0.00119711 
H715     H      0.074350000000     0.815110000000     0.754840000000     0.0371959  
H716     H      0.077450000000     0.777360000000     0.756520000000     0.0372946  
H717     H      0.967620000000     0.737190000000     0.780930000000     0.0413556  
H718     H      0.939430000000     0.741660000000     0.741270000000     0.0595155  
H719     H      0.078390000000     0.822770000000     0.835430000000     0.0383403  
H720     H      0.915240000000     0.759110000000     0.687250000000     0.138231   
N1       N      0.709110000000     0.923310000000     0.750730000000    -0.181364   
N2       N      0.732180000000     0.973020000000     0.726990000000    -0.107898   
N3       N      0.787520000000     0.078220000000     0.712430000000    -0.113546   
N4       N      0.816100000000     0.127300000000     0.687310000000    -0.166497   
N5       N      0.987320000000     0.462580000000     0.510570000000    -0.180349   
N6       N      0.968890000000     0.415160000000     0.540670000000    -0.107407   
N7       N      0.922790000000     0.312430000000     0.574700000000    -0.113378   
N8       N      0.896120000000     0.265250000000     0.606540000000    -0.166907   
N9       N      0.140990000000     0.802380000000     0.348950000000    -0.183561   
N10      N      0.110660000000     0.751930000000     0.368840000000    -0.107067   
N11      N      0.065820000000     0.654100000000     0.429490000000    -0.111867   
N12      N      0.043820000000     0.607190000000     0.462170000000    -0.166823   
N13      N      0.563700000000     0.598680000000     0.950400000000    -0.181969   
N14      N      0.587860000000     0.647740000000     0.922880000000    -0.108565   
N15      N      0.626800000000     0.729800000000     0.827480000000    -0.113721   
N16      N      0.647730000000     0.777790000000     0.797950000000    -0.166821   
N17      N      0.335620000000     0.113980000000     0.159470000000    -0.180441   
N18      N      0.315970000000     0.067820000000     0.195390000000    -0.108267   
N19      N      0.276880000000     0.992650000000     0.301800000000    -0.113793   
N20      N      0.246510000000     0.946780000000     0.335680000000    -0.167071   
N21      N      0.388450000000     0.253080000000     0.084020000000    -0.180973   
N22      N      0.408420000000     0.300030000000     0.050870000000    -0.107909   
N23      N      0.458640000000     0.403230000000     0.017730000000    -0.113086   
N24      N      0.485020000000     0.451500000000     0.989800000000    -0.166129   
N25      N      0.689160000000     0.813600000000     0.377960000000    -0.182023   
N26      N      0.687880000000     0.811290000000     0.452730000000    -0.108329   
N27      N      0.683050000000     0.834250000000     0.597340000000    -0.113209   
N28      N      0.680000000000     0.837750000000     0.671010000000    -0.167258   
N29      N      0.677890000000     0.866380000000     0.878430000000    -0.182471   
N30      N      0.678970000000     0.870340000000     0.953060000000    -0.108323   
N31      N      0.681580000000     0.850420000000     0.099660000000    -0.113142   
N32      N      0.681250000000     0.845660000000     0.173340000000    -0.167131   
N33      N      0.716400000000     0.790520000000     0.245340000000    -0.18108    
N34      N      0.737320000000     0.762410000000     0.218690000000    -0.107954   
N35      N      0.786770000000     0.706720000000     0.200510000000    -0.113412   
N36      N      0.812920000000     0.683180000000     0.177220000000    -0.167145   
N37      N      0.653270000000     0.871080000000     0.306310000000    -0.181351   
N38      N      0.632760000000     0.900770000000     0.328060000000    -0.108153   
N39      N      0.591040000000     0.948930000000     0.407790000000    -0.113463   
N40      N      0.564420000000     0.971790000000     0.432340000000    -0.166751   
N41      N      0.015870000000     0.547270000000     0.592500000000    -0.182707   
N42      N      0.016510000000     0.539750000000     0.666320000000    -0.108539   
N43      N      0.022290000000     0.499670000000     0.799460000000    -0.113742   
N44      N      0.024630000000     0.491890000000     0.872560000000    -0.167316   
N45      N      0.020550000000     0.501440000000     0.084990000000    -0.181769   
N46      N      0.016130000000     0.507310000000     0.158290000000    -0.107358   
N47      N      0.018540000000     0.521300000000     0.308370000000    -0.112394   
N48      N      0.015760000000     0.523830000000     0.382580000000    -0.166404   
N49      N      0.889590000000     0.613450000000     0.129900000000    -0.182166   
N50      N      0.916280000000     0.592100000000     0.099110000000    -0.108534   
N51      N      0.958490000000     0.555220000000     0.998710000000    -0.114034   
N52      N      0.983580000000     0.531710000000     0.970910000000    -0.167909   
N53      N      0.360850000000     0.161820000000     0.021400000000    -0.180056   
N54      N      0.363770000000     0.162850000000     0.947940000000    -0.106784   
N55      N      0.366800000000     0.156640000000     0.797640000000    -0.113694   
N56      N      0.366010000000     0.164340000000     0.724200000000    -0.167545   
N57      N      0.363500000000     0.207140000000     0.222200000000    -0.181491   
N58      N      0.365070000000     0.215060000000     0.296260000000    -0.108254   
N59      N      0.364220000000     0.200820000000     0.445460000000    -0.11289    
N60      N      0.361720000000     0.198060000000     0.519380000000    -0.166835   
N61      N      0.488260000000     0.035370000000     0.510070000000    -0.180638   
N62      N      0.460660000000     0.056030000000     0.539940000000    -0.107937   
N63      N      0.409780000000     0.109800000000     0.563150000000    -0.113345   
N64      N      0.390460000000     0.139030000000     0.589910000000    -0.167087   
N65      N      0.061880000000     0.460270000000     0.987660000000    -0.181881   
N66      N      0.087900000000     0.436540000000     0.963130000000    -0.108644   
N67      N      0.128860000000     0.395280000000     0.867860000000    -0.11379    
N68      N      0.155910000000     0.374030000000     0.839050000000    -0.167013   
N69      N      0.243090000000     0.313970000000     0.801730000000    -0.181873   
N70      N      0.273300000000     0.295180000000     0.775020000000    -0.10851    
N71      N      0.316460000000     0.255190000000     0.681460000000    -0.113621   
N72      N      0.335640000000     0.226510000000     0.651770000000    -0.167286   
N73      N      0.518610000000     0.513300000000     0.862950000000    -0.181908   
N74      N      0.514200000000     0.506870000000     0.788880000000    -0.108085   
N75      N      0.483920000000     0.475770000000     0.646960000000    -0.113761   
N76      N      0.482960000000     0.473490000000     0.572620000000    -0.167532   
N77      N      0.525240000000     0.501730000000     0.368660000000    -0.181654   
N78      N      0.524570000000     0.508340000000     0.295900000000    -0.106485   
N79      N      0.526490000000     0.523890000000     0.146450000000    -0.112064   
N80      N      0.528360000000     0.533220000000     0.074010000000    -0.16705    
N81      N      0.869340000000     0.221860000000     0.748140000000    -0.182028   
N82      N      0.868490000000     0.221910000000     0.823240000000    -0.108487   
N83      N      0.845270000000     0.188400000000     0.966220000000    -0.11324    
N84      N      0.843280000000     0.181040000000     0.040100000000    -0.166486   
N85      N      0.844370000000     0.171980000000     0.546460000000    -0.180425   
N86      N      0.844130000000     0.168240000000     0.472430000000    -0.107273   
N87      N      0.828780000000     0.148830000000     0.324460000000    -0.113338   
N88      N      0.830030000000     0.153530000000     0.250010000000    -0.166161   
N89      N      0.186380000000     0.342900000000     0.716070000000    -0.180388   
N90      N      0.180120000000     0.343040000000     0.641760000000    -0.107909   
N91      N      0.149510000000     0.345690000000     0.500100000000    -0.113772   
N92      N      0.146670000000     0.346360000000     0.425620000000    -0.167407   
N93      N      0.178350000000     0.352760000000     0.217360000000    -0.181129   
N94      N      0.183930000000     0.352390000000     0.143130000000    -0.107956   
N95      N      0.211450000000     0.347740000000     0.000520000000    -0.11367    
N96      N      0.212180000000     0.344920000000     0.925990000000    -0.167235   
N97      N      0.906860000000     0.227130000000     0.161370000000    -0.181859   
N98      N      0.954690000000     0.263220000000     0.186380000000    -0.108457   
N99      N      0.041420000000     0.307460000000     0.273030000000    -0.113571   
N100     N      0.090440000000     0.324970000000     0.297820000000    -0.167233   
N101     N      0.433300000000     0.453890000000     0.438730000000    -0.181107   
N102     N      0.385230000000     0.432180000000     0.408240000000    -0.107865   
N103     N      0.281800000000     0.391290000000     0.378330000000    -0.113352   
N104     N      0.233980000000     0.374340000000     0.349850000000    -0.166397   
N105     N      0.541750000000     0.991530000000     0.569060000000    -0.182792   
N106     N      0.541160000000     0.984600000000     0.643180000000    -0.108531   
N107     N      0.519180000000     0.985310000000     0.789460000000    -0.113412   
N108     N      0.519770000000     0.991070000000     0.863310000000    -0.167294   
N109     N      0.510190000000     0.016090000000     0.370790000000    -0.181938   
N110     N      0.506270000000     0.019250000000     0.296450000000    -0.108346   
N111     N      0.520080000000     0.013420000000     0.148340000000    -0.113307   
N112     N      0.517000000000     0.007520000000     0.074430000000    -0.167251   
N113     N      0.769840000000     0.109100000000     0.129040000000    -0.179835   
N114     N      0.727870000000     0.083370000000     0.090530000000    -0.102794   
N115     N      0.639550000000     0.038800000000     0.004070000000    -0.113057   
N116     N      0.590630000000     0.019000000000     0.977590000000    -0.168005   
N117     N      0.204420000000     0.873820000000     0.448240000000    -0.180607   
N118     N      0.202960000000     0.865290000000     0.521640000000    -0.107608   
N119     N      0.210290000000     0.868990000000     0.672230000000    -0.113563   
N120     N      0.199150000000     0.864290000000     0.745200000000    -0.166886   
N121     N      0.149330000000     0.840170000000     0.946670000000    -0.182798   
N122     N      0.146160000000     0.844370000000     0.020890000000    -0.108511   
N123     N      0.175070000000     0.873320000000     0.164130000000    -0.113543   
N124     N      0.183340000000     0.874910000000     0.237650000000    -0.166921   
N125     N      0.244360000000     0.891090000000     0.881800000000    -0.180713   
N126     N      0.292970000000     0.919200000000     0.910650000000    -0.10792    
N127     N      0.397320000000     0.964250000000     0.933190000000    -0.113077   
N128     N      0.445900000000     0.979050000000     0.956140000000    -0.166824   
N129     N      0.816670000000     0.655910000000     0.753020000000    -0.182109   
N130     N      0.813850000000     0.653810000000     0.827820000000    -0.108292   
N131     N      0.836970000000     0.652030000000     0.973520000000    -0.113178   
N132     N      0.841010000000     0.651490000000     0.047640000000    -0.166536   
N133     N      0.866050000000     0.676350000000     0.551480000000    -0.18516    
N134     N      0.873070000000     0.674110000000     0.477950000000    -0.108014   
N135     N      0.867480000000     0.649400000000     0.330990000000    -0.113039   
N136     N      0.862200000000     0.644570000000     0.256850000000    -0.167359   
N137     N      0.770030000000     0.625720000000     0.617810000000    -0.180541   
N138     N      0.719570000000     0.596040000000     0.596950000000    -0.10792    
N139     N      0.627760000000     0.546960000000     0.521250000000    -0.113262   
N140     N      0.577390000000     0.522620000000     0.499930000000    -0.166335   
N141     N      0.912280000000     0.706360000000     0.686250000000    -0.181247   
N142     N      0.962640000000     0.733550000000     0.708730000000    -0.108156   
N143     N      0.052740000000     0.783860000000     0.788370000000    -0.11356    
N144     N      0.102410000000     0.811820000000     0.812170000000    -0.166977   
O1       O      0.875810000000     0.703480000000     0.666200000000    -0.382431   
O2       O      0.803910000000     0.662780000000     0.634760000000    -0.382231   
O3       O      0.828850000000     0.678740000000     0.701740000000    -0.396884   
O4       O      0.850790000000     0.687370000000     0.599100000000    -0.396922   
O5       O      0.856150000000     0.654660000000     0.603810000000    -0.385358   
O6       O      0.828890000000     0.643030000000     0.703710000000    -0.377964   
O7       O      0.807150000000     0.628740000000     0.634840000000    -0.395805   
O8       O      0.877760000000     0.668920000000     0.672470000000    -0.398322   
O9       O      0.136660000000     0.848990000000     0.827280000000    -0.398233   
O10      O      0.208060000000     0.888910000000     0.862270000000    -0.398152   
O11      O      0.184610000000     0.874910000000     0.794080000000    -0.398768   
O12      O      0.159800000000     0.862910000000     0.895300000000    -0.400973   
O13      O      0.162540000000     0.828610000000     0.897030000000    -0.380147   
O14      O      0.187730000000     0.840770000000     0.795900000000    -0.395907   
O15      O      0.210300000000     0.854340000000     0.864440000000    -0.379601   
O16      O      0.139410000000     0.814630000000     0.828710000000    -0.398885   
O17      O      0.487080000000     0.009240000000     0.961450000000    -0.396301   
O18      O      0.560140000000     0.028940000000     0.967670000000    -0.398379   
O19      O      0.524590000000     0.015020000000     0.911980000000    -0.399283   
O20      O      0.523030000000     0.023340000000     0.018070000000    -0.397962   
O21      O      0.510600000000     0.983270000000     0.025550000000    -0.399849   
O22      O      0.514750000000     0.975630000000     0.919770000000    -0.398626   
O23      O      0.549190000000     0.989540000000     0.978360000000    -0.399424   
O24      O      0.476530000000     0.969510000000     0.967250000000    -0.400093   
O25      O      0.202610000000     0.381640000000     0.333140000000    -0.395507   
O26      O      0.130200000000     0.356910000000     0.308520000000    -0.396982   
O27      O      0.158590000000     0.367650000000     0.373040000000    -0.397481   
O28      O      0.174870000000     0.371030000000     0.268380000000    -0.382623   
O29      O      0.167010000000     0.332000000000     0.270420000000    -0.400692   
O30      O      0.150080000000     0.328360000000     0.374580000000    -0.398872   
O31      O      0.122680000000     0.317960000000     0.309960000000    -0.399888   
O32      O      0.194890000000     0.342620000000     0.335430000000    -0.39728    
O33      O      0.795150000000     0.150390000000     0.141660000000    -0.398536   
O34      O      0.864200000000     0.210130000000     0.156320000000    -0.377427   
O35      O      0.832450000000     0.186880000000     0.095890000000    -0.396924   
O36      O      0.826210000000     0.173340000000     0.201300000000    -0.395947   
O37      O      0.842880000000     0.149060000000     0.194810000000    -0.394231   
O38      O      0.850220000000     0.163600000000     0.089260000000    -0.397574   
O39      O      0.880700000000     0.185760000000     0.150290000000    -0.403172   
O40      O      0.812260000000     0.126660000000     0.133050000000    -0.395499   
O41      O      0.541100000000     0.522970000000     0.489190000000    -0.396854   
O42      O      0.469370000000     0.488850000000     0.455810000000    -0.401167   
O43      O      0.493120000000     0.498110000000     0.523320000000    -0.400262   
O44      O      0.517230000000     0.513680000000     0.422090000000    -0.391018   
O45      O      0.514510000000     0.476660000000     0.417620000000    -0.400102   
O46      O      0.495080000000     0.463330000000     0.521000000000    -0.396608   
O47      O      0.468480000000     0.452630000000     0.455060000000    -0.382976   
O48      O      0.541350000000     0.487450000000     0.483520000000    -0.397397   
O49      O      0.161090000000     0.340110000000     0.833020000000    -0.396005   
O50      O      0.204930000000     0.310070000000     0.814380000000    -0.379821   
O51      O      0.189700000000     0.325380000000     0.876250000000    -0.398566   
O52      O      0.176550000000     0.324510000000     0.771100000000    -0.377846   
O53      O      0.209250000000     0.362490000000     0.765790000000    -0.398458   
O54      O      0.222270000000     0.363570000000     0.871340000000    -0.397066   
O55      O      0.237890000000     0.347850000000     0.809320000000    -0.399637   
O56      O      0.194060000000     0.377990000000     0.827460000000    -0.399148   
O57      O      0.330040000000     0.188590000000     0.635090000000    -0.399123   
O58      O      0.357500000000     0.144230000000     0.605530000000    -0.39749    
O59      O      0.344920000000     0.157840000000     0.671810000000    -0.398853   
O60      O      0.342550000000     0.175040000000     0.568930000000    -0.397895   
O61      O      0.381210000000     0.207100000000     0.573390000000    -0.398719   
O62      O      0.383860000000     0.189360000000     0.675840000000    -0.399093   
O63      O      0.396100000000     0.176440000000     0.609170000000    -0.39963    
O64      O      0.368670000000     0.220540000000     0.639950000000    -0.39804    
O65      O      0.024660000000     0.460000000000     0.983110000000    -0.375654   
O66      O      0.985410000000     0.495910000000     0.976180000000    -0.399977   
O67      O      0.005430000000     0.476250000000     0.925920000000    -0.395555   
O68      O      0.004750000000     0.479790000000     0.033230000000    -0.382915   
O69      O      0.038940000000     0.517080000000     0.031320000000    -0.400819   
O70      O      0.041910000000     0.511470000000     0.924960000000    -0.399848   
O71      O      0.020810000000     0.532080000000     0.972570000000    -0.399359   
O72      O      0.059990000000     0.496190000000     0.983740000000    -0.3998     
O73      O      0.650110000000     0.834120000000     0.289000000000    -0.382148   
O74      O      0.681800000000     0.793510000000     0.259210000000    -0.399569   
O75      O      0.667940000000     0.805750000000     0.325460000000    -0.398587   
O76      O      0.663710000000     0.821920000000     0.222820000000    -0.399499   
O77      O      0.701390000000     0.855520000000     0.226860000000    -0.399599   
O78      O      0.705850000000     0.838830000000     0.329210000000    -0.375994   
O79      O      0.719280000000     0.827270000000     0.262700000000    -0.38219    
O80      O      0.687700000000     0.867610000000     0.293520000000    -0.399748   
O81      O      0.814090000000     0.647820000000     0.163670000000    -0.399257   
O82      O      0.853020000000     0.612640000000     0.144320000000    -0.37949    
O83      O      0.838540000000     0.628860000000     0.206760000000    -0.397495   
O84      O      0.828570000000     0.631660000000     0.101220000000    -0.395704   
O85      O      0.862500000000     0.669140000000     0.098890000000    -0.397381   
O86      O      0.874960000000     0.664040000000     0.203120000000    -0.398262   
O87      O      0.887760000000     0.649060000000     0.138750000000    -0.401138   
O88      O      0.849510000000     0.684130000000     0.163620000000    -0.398687   
O89      O      0.527950000000     0.969390000000     0.450440000000    -0.399521   
O90      O      0.489710000000     0.001260000000     0.489640000000    -0.399179   
O91      O      0.501180000000     0.991400000000     0.420040000000    -0.400884   
O92      O      0.516740000000     0.979170000000     0.519730000000    -0.401259   
O93      O      0.551420000000     0.015990000000     0.519330000000    -0.38061    
O94      O      0.535460000000     0.028480000000     0.420120000000    -0.376459   
O95      O      0.524540000000     0.037940000000     0.489940000000    -0.377205   
O96      O      0.562660000000     0.006290000000     0.449600000000    -0.396067   
O97      O      0.368190000000     0.152290000000     0.143200000000    -0.376419   
O98      O      0.394510000000     0.222300000000     0.106910000000    -0.402026   
O99      O      0.382190000000     0.199390000000     0.175280000000    -0.398009   
O100     O      0.380610000000     0.175790000000     0.074890000000    -0.385922   
O101     O      0.341490000000     0.167810000000     0.069090000000    -0.40016    
O102     O      0.343310000000     0.191870000000     0.169200000000    -0.378467   
O103     O      0.355690000000     0.214990000000     0.100570000000    -0.381708   
O104     O      0.329390000000     0.145030000000     0.137820000000    -0.39687    
O105     O      0.522120000000     0.487080000000     0.978790000000    -0.395067   
O106     O      0.561620000000     0.560960000000     0.958890000000    -0.378761   
O107     O      0.545330000000     0.530930000000     0.021290000000    -0.398165   
O108     O      0.538390000000     0.516960000000     0.915960000000    -0.381852   
O109     O      0.504340000000     0.520470000000     0.915040000000    -0.402308   
O110     O      0.508970000000     0.530180000000     0.021110000000    -0.400395   
O111     O      0.526650000000     0.562680000000     0.960380000000    -0.401235   
O112     O      0.486790000000     0.488270000000     0.975790000000    -0.397559   
O113     O      0.235020000000     0.905450000000     0.336160000000    -0.39497    
O114     O      0.181460000000     0.832740000000     0.338910000000    -0.378853   
O115     O      0.203090000000     0.869530000000     0.285220000000    -0.397229   
O116     O      0.213240000000     0.868220000000     0.390910000000    -0.381658   
O117     O      0.185990000000     0.881010000000     0.400440000000    -0.401226   
O118     O      0.173420000000     0.879130000000     0.294870000000    -0.397195   
O119     O      0.153220000000     0.843660000000     0.352350000000    -0.401133   
O120     O      0.205980000000     0.916150000000     0.343800000000    -0.399904   
O121     O      0.049150000000     0.574720000000     0.479130000000    -0.397414   
O122     O      0.020690000000     0.501540000000     0.500580000000    -0.399344   
O123     O      0.034390000000     0.530800000000     0.437170000000    -0.396121   
O124     O      0.035340000000     0.545250000000     0.542040000000    -0.400714   
O125     O      0.996650000000     0.538650000000     0.538050000000    -0.379933   
O126     O      0.996330000000     0.526000000000     0.432870000000    -0.396689   
O127     O      0.982290000000     0.495710000000     0.495850000000    -0.381024   
O128     O      0.010630000000     0.568720000000     0.474300000000    -0.39852    
O129     O      0.893870000000     0.229890000000     0.629310000000    -0.396639   
O130     O      0.853130000000     0.159750000000     0.667510000000    -0.39536    
O131     O      0.866920000000     0.181490000000     0.598160000000    -0.385129   
O132     O      0.880020000000     0.207840000000     0.698640000000    -0.400693   
O133     O      0.846140000000     0.211490000000     0.696700000000    -0.377245   
O134     O      0.832800000000     0.184910000000     0.596250000000    -0.399649   
O135     O      0.819000000000     0.163130000000     0.665680000000    -0.397165   
O136     O      0.859510000000     0.232860000000     0.627140000000    -0.399285   
O137     O      0.681880000000     0.816480000000     0.789770000000    -0.398682   
O138     O      0.712530000000     0.889490000000     0.766420000000    -0.402875   
O139     O      0.696970000000     0.861030000000     0.830000000000    -0.402044   
O140     O      0.697740000000     0.845760000000     0.726160000000    -0.40056    
O141     O      0.659630000000     0.840550000000     0.719900000000    -0.398706   
O142     O      0.658790000000     0.855560000000     0.824030000000    -0.379376   
O143     O      0.674670000000     0.884820000000     0.760410000000    -0.381916   
O144     O      0.643930000000     0.811590000000     0.783490000000    -0.395711   
O145     O      0.672410000000     0.925030000000     0.763560000000    -0.271781   
O146     O      0.946800000000     0.450210000000     0.488790000000    -0.271493   
O147     O      0.163310000000     0.790690000000     0.308930000000    -0.271585   
O148     O      0.601900000000     0.598020000000     0.943100000000    -0.269986   
O149     O      0.376790000000     0.120700000000     0.169790000000    -0.269071   
O150     O      0.350940000000     0.253700000000     0.094910000000    -0.2715     
O151     O      0.732850000000     0.843770000000     0.380790000000    -0.268191   
O152     O      0.633380000000     0.843490000000     0.880560000000    -0.272353   
O153     O      0.757150000000     0.822030000000     0.262520000000    -0.269373   
O154     O      0.614090000000     0.834940000000     0.318550000000    -0.271778   
O155     O      0.971220000000     0.524350000000     0.593820000000    -0.271119   
O156     O      0.004340000000     0.458320000000     0.094090000000    -0.272052   
O157     O      0.852030000000     0.574050000000     0.124490000000    -0.271117   
O158     O      0.395510000000     0.155650000000     0.024640000000    -0.272466   
O159     O      0.318910000000     0.185520000000     0.225020000000    -0.271082   
O160     O      0.521980000000     0.076500000000     0.500120000000    -0.268305   
O161     O      0.024450000000     0.420400000000     0.990990000000    -0.267964   
O162     O      0.207440000000     0.273230000000     0.795310000000    -0.270219   
O163     O      0.538970000000     0.489440000000     0.865120000000    -0.272861   
O164     O      0.554030000000     0.544490000000     0.375470000000    -0.276306   
O165     O      0.834180000000     0.228370000000     0.747790000000    -0.270305   
O166     O      0.865550000000     0.149200000000     0.550410000000    -0.273858   
O167     O      0.148600000000     0.303860000000     0.718920000000    -0.269801   
O168     O      0.204710000000     0.396570000000     0.217020000000    -0.273194   
O169     O      0.890740000000     0.253060000000     0.180750000000    -0.27119    
O170     O      0.425030000000     0.413670000000     0.455960000000    -0.27215    
O171     O      0.570390000000     0.034940000000     0.577550000000    -0.270193   
O172     O      0.544440000000     0.058080000000     0.370770000000    -0.268045   
O173     O      0.764640000000     0.070080000000     0.142600000000    -0.279423   
O174     O      0.240130000000     0.869170000000     0.443860000000    -0.27162    
O175     O      0.165400000000     0.812670000000     0.956570000000    -0.270884   
O176     O      0.251550000000     0.856990000000     0.874760000000    -0.27036    
O177     O      0.805810000000     0.613010000000     0.752090000000    -0.270323   
O178     O      0.886850000000     0.652920000000     0.561570000000    -0.27695    
O179     O      0.767760000000     0.661780000000     0.602420000000    -0.271745   
O180     O      0.908530000000     0.742160000000     0.697150000000    -0.27196    


