data_structure

_audit_creation_method RASPA-1.0
_audit_creation_date 2023-5-25
_audit_author_name 'Poobodin Mano'

_cell_length_a    36.541
_cell_length_b    37.48
_cell_length_c    37.2991
_cell_angle_alpha 90
_cell_angle_beta  90
_cell_angle_gamma 90
_cell_volume      51083.2

_symmetry_cell_setting          triclinic
_symmetry_space_group_name_Hall 'P 1'
_symmetry_space_group_name_H-M  'P 1'
_symmetry_Int_Tables_number     1

_symmetry_equiv_pos_as_xyz 'x,y,z'

loop_
_atom_site_label
_atom_site_type_symbol
_atom_site_fract_x
_atom_site_fract_y
_atom_site_fract_z
_atom_site_charge
C1       C      0.060680000000     0.045800000000     0.069870000000     0.303681   
C2       C      0.958730000000     0.945590000000     0.070010000000     0.295984   
C3       C      0.060320000000     0.946410000000     0.058290000000     0.301038   
C4       C      0.959200000000     0.044750000000     0.081530000000     0.298708   
C5       C      0.103940000000     0.956170000000     0.567550000000     0.299094   
C6       C      0.979170000000     0.015020000000     0.608480000000     0.310884   
C7       C      0.077580000000     0.041730000000     0.612560000000     0.295324   
C8       C      0.005360000000     0.929570000000     0.563440000000     0.302757   
C9       C      0.944280000000     0.495080000000     0.022440000000     0.366832   
C10      C      0.077560000000     0.492400000000     0.988100000000     0.370043   
C11      C      0.031070000000     0.487800000000     0.070650000000     0.474538   
C12      C      0.997610000000     0.500010000000     0.939500000000     0.474952   
C13      C      0.080460000000     0.481770000000     0.528820000000     0.364213   
C14      C      0.952190000000     0.500340000000     0.482350000000     0.368236   
C15      C      0.036880000000     0.484850000000     0.441200000000     0.473525   
C16      C      0.992530000000     0.500670000000     0.569020000000     0.481465   
C17      C      0.531010000000     0.971070000000     0.088680000000     0.47608    
C18      C      0.521220000000     0.974290000000     0.952970000000     0.479025   
C19      C      0.525880000000     0.906530000000     0.020970000000     0.476705   
C20      C      0.519460000000     0.041550000000     0.024360000000     0.481762   
C21      C      0.522540000000     0.032670000000     0.456540000000     0.478186   
C22      C      0.512930000000     0.051530000000     0.591080000000     0.480011   
C23      C      0.516920000000     0.109110000000     0.512400000000     0.473841   
C24      C      0.518350000000     0.975120000000     0.532480000000     0.474655   
C25      C      0.526510000000     0.469820000000     0.033500000000     0.475239   
C26      C      0.518130000000     0.475720000000     0.897390000000     0.473568   
C27      C      0.519640000000     0.404970000000     0.960450000000     0.477373   
C28      C      0.527800000000     0.539910000000     0.965970000000     0.481813   
C29      C      0.509880000000     0.557940000000     0.536080000000     0.471131   
C30      C      0.520920000000     0.536980000000     0.401680000000     0.469131   
C31      C      0.510190000000     0.480350000000     0.481600000000     0.47511    
C32      C      0.516460000000     0.614110000000     0.459870000000     0.472257   
C33      C      0.545320000000     0.498900000000     0.804830000000    -0.0329052  
C34      C      0.473490000000     0.543520000000     0.625650000000    -0.0318406  
C35      C      0.540740000000     0.570710000000     0.593860000000    -0.00285005 
C36      C      0.472140000000     0.565470000000     0.590970000000    -0.00280029 
C37      C      0.505700000000     0.559200000000     0.712810000000    -0.0544283  
C38      C      0.508800000000     0.485060000000     0.720770000000    -0.0540892  
C39      C      0.505670000000     0.537440000000     0.682280000000     0.0609101  
C40      C      0.540090000000     0.548270000000     0.628060000000    -0.0313653  
C41      C      0.508910000000     0.506830000000     0.751290000000     0.060581   
C42      C      0.478980000000     0.498350000000     0.808660000000    -0.045314   
C43      C      0.507370000000     0.544150000000     0.747070000000    -0.0563187  
C44      C      0.479640000000     0.475570000000     0.842850000000     0.0446246  
C45      C      0.549170000000     0.475810000000     0.838470000000    -0.000880842
C46      C      0.507310000000     0.500120000000     0.686510000000    -0.0565518  
C47      C      0.497980000000     0.484700000000     0.127380000000    -0.0327327  
C48      C      0.560290000000     0.513010000000     0.312430000000    -0.0314897  
C49      C      0.490550000000     0.536160000000     0.342670000000    -0.00315044 
C50      C      0.560070000000     0.533610000000     0.347900000000    -0.0028302  
C51      C      0.533530000000     0.535250000000     0.225590000000    -0.0543878  
C52      C      0.531190000000     0.462170000000     0.210660000000    -0.0540678  
C53      C      0.531390000000     0.510820000000     0.253940000000     0.0608536  
C54      C      0.494280000000     0.515380000000     0.307560000000    -0.0313118  
C55      C      0.532850000000     0.486630000000     0.182280000000     0.0602492  
C56      C      0.564350000000     0.482830000000     0.125010000000    -0.0453852  
C57      C      0.534260000000     0.523390000000     0.190050000000    -0.0561666  
C58      C      0.563980000000     0.463680000000     0.088520000000     0.0446824  
C59      C      0.494430000000     0.465090000000     0.091630000000    -0.00115946 
C60      C      0.530470000000     0.474050000000     0.246220000000    -0.0567205  
C61      C      0.552980000000     0.884650000000     0.519420000000    -0.0325914  
C62      C      0.485270000000     0.705720000000     0.472030000000    -0.0313602  
C63      C      0.552980000000     0.669420000000     0.452790000000    -0.00331385 
C64      C      0.484060000000     0.671390000000     0.449820000000    -0.00318902 
C65      C      0.521460000000     0.790060000000     0.459060000000    -0.054529   
C66      C      0.518910000000     0.798890000000     0.533480000000    -0.0540345  
C67      C      0.519880000000     0.759970000000     0.481250000000     0.0611867  
C68      C      0.551900000000     0.703780000000     0.474870000000    -0.0312618  
C69      C      0.520430000000     0.828980000000     0.511280000000     0.060536   
C70      C      0.486300000000     0.883750000000     0.518130000000    -0.0453335  
C71      C      0.521690000000     0.824320000000     0.473820000000    -0.0562245  
C72      C      0.484020000000     0.918580000000     0.539620000000     0.0448825  
C73      C      0.553380000000     0.919150000000     0.541380000000    -0.00156648 
C74      C      0.518630000000     0.764610000000     0.518710000000    -0.0567409  
C75      C      0.546510000000     0.204090000000     0.510750000000    -0.0328448  
C76      C      0.476760000000     0.386720000000     0.484130000000    -0.0318308  
C77      C      0.542580000000     0.426630000000     0.502710000000    -0.00231926 
C78      C      0.473600000000     0.426290000000     0.493860000000    -0.00224275 
C79      C      0.506220000000     0.311490000000     0.530820000000    -0.0544137  
C80      C      0.515070000000     0.278220000000     0.464280000000    -0.0542659  
C81      C      0.508850000000     0.332340000000     0.499770000000     0.0609124  
C82      C      0.542630000000     0.387240000000     0.492280000000    -0.0316387  
C83      C      0.512610000000     0.257390000000     0.495350000000     0.060764   
C84      C      0.480630000000     0.201440000000     0.503460000000    -0.0454     
C85      C      0.508050000000     0.274310000000     0.528760000000    -0.0565207  
C86      C      0.481710000000     0.161880000000     0.493130000000     0.0451357  
C87      C      0.551070000000     0.164730000000     0.500820000000    -0.00114423 
C88      C      0.513250000000     0.315400000000     0.466340000000    -0.0566637  
C89      C      0.565040000000     0.630810000000     0.979100000000    -0.0328117  
C90      C      0.497040000000     0.812820000000     0.009090000000    -0.0316651  
C91      C      0.563980000000     0.852310000000     0.024330000000    -0.00233447 
C92      C      0.494730000000     0.848600000000     0.028560000000    -0.00224084 
C93      C      0.535290000000     0.731360000000     0.029910000000    -0.0545754  
C94      C      0.531870000000     0.715340000000     0.956730000000    -0.0542005  
C95      C      0.533060000000     0.759050000000     0.004850000000     0.0615267  
C96      C      0.563320000000     0.816390000000     0.005070000000    -0.0315271  
C97      C      0.533800000000     0.687630000000     0.981810000000     0.0611431  
C98      C      0.498620000000     0.633310000000     0.980850000000    -0.0456702  
C99      C      0.535610000000     0.695870000000     0.018610000000    -0.0564924  
C100     C      0.495000000000     0.597210000000     0.962030000000     0.046126   
C101     C      0.564700000000     0.594750000000     0.959960000000    -0.000744882
C102     C      0.531490000000     0.750840000000     0.968040000000    -0.0566828  
C103     C      0.481720000000     0.131630000000     0.011850000000    -0.0330625  
C104     C      0.548400000000     0.312030000000     0.971330000000    -0.0316834  
C105     C      0.481500000000     0.350790000000     0.954360000000    -0.00226734 
C106     C      0.550450000000     0.347040000000     0.950440000000    -0.0019721  
C107     C      0.510170000000     0.229500000000     0.955120000000    -0.0548703  
C108     C      0.514380000000     0.217420000000     0.029020000000    -0.0540486  
C109     C      0.512440000000     0.258520000000     0.978620000000     0.0617231  
C110     C      0.481940000000     0.315700000000     0.975190000000    -0.0314203  
C111     C      0.512520000000     0.188380000000     0.005490000000     0.0605948  
C112     C      0.548190000000     0.134410000000     0.008730000000    -0.045889   
C113     C      0.510220000000     0.194650000000     0.968320000000    -0.0561622  
C114     C      0.552250000000     0.098990000000     0.028810000000     0.0459791  
C115     C      0.482820000000     0.096440000000     0.032540000000    -0.000532004
C116     C      0.514320000000     0.252280000000     0.015810000000    -0.0571367  
C117     C      0.547190000000     0.995590000000     0.860120000000    -0.0326575  
C118     C      0.475870000000     0.036300000000     0.680400000000    -0.0319179  
C119     C      0.543420000000     0.063490000000     0.649190000000    -0.00255019 
C120     C      0.474780000000     0.058150000000     0.645710000000    -0.0021846  
C121     C      0.505930000000     0.052800000000     0.767690000000    -0.0546376  
C122     C      0.511460000000     0.978850000000     0.776230000000    -0.0539748  
C123     C      0.507280000000     0.030830000000     0.737360000000     0.0613411  
C124     C      0.542360000000     0.041360000000     0.683550000000    -0.0313992  
C125     C      0.510540000000     0.000850000000     0.806550000000     0.0607148  
C126     C      0.480900000000     0.991050000000     0.863790000000    -0.0454012  
C127     C      0.507530000000     0.038050000000     0.802060000000    -0.0562517  
C128     C      0.483020000000     0.969030000000     0.898430000000     0.0449406  
C129     C      0.552290000000     0.973330000000     0.894090000000    -0.00110885 
C130     C      0.509890000000     0.993600000000     0.741860000000    -0.0567085  
C131     C      0.501930000000     0.980280000000     0.182710000000    -0.0330365  
C132     C      0.562870000000     0.013010000000     0.366830000000    -0.0315218  
C133     C      0.491550000000     0.029280000000     0.398040000000    -0.00248284 
C134     C      0.561140000000     0.033100000000     0.402440000000    -0.00211088 
C135     C      0.532710000000     0.033700000000     0.280770000000    -0.0544571  
C136     C      0.538240000000     0.960910000000     0.265170000000    -0.0541838  
C137     C      0.533600000000     0.008900000000     0.308820000000     0.0613031  
C138     C      0.496850000000     0.009370000000     0.362690000000    -0.0312575  
C139     C      0.536970000000     0.985690000000     0.237100000000     0.0608299  
C140     C      0.568120000000     0.986120000000     0.179690000000    -0.0456409  
C141     C      0.534340000000     0.022310000000     0.245160000000    -0.0563287  
C142     C      0.569620000000     0.967490000000     0.143050000000     0.04537    
C143     C      0.500460000000     0.960790000000     0.146820000000    -0.000452673
C144     C      0.536550000000     0.972290000000     0.300800000000    -0.0567677  
C145     C      0.659600000000     0.506950000000     0.475420000000    -0.0267081  
C146     C      0.846300000000     0.544700000000     0.538230000000    -0.0260302  
C147     C      0.875840000000     0.472490000000     0.537740000000    -0.0252292  
C148     C      0.880850000000     0.535590000000     0.559600000000    -0.0233312  
C149     C      0.756520000000     0.515260000000     0.541570000000    -0.0548906  
C150     C      0.748190000000     0.539170000000     0.470980000000    -0.0541854  
C151     C      0.787520000000     0.520490000000     0.520210000000     0.0616663  
C152     C      0.841600000000     0.483080000000     0.516710000000    -0.0250252  
C153     C      0.717130000000     0.533710000000     0.492310000000     0.0604656  
C154     C      0.662080000000     0.569360000000     0.495910000000    -0.0397667  
C155     C      0.721610000000     0.521790000000     0.527890000000    -0.0562946  
C156     C      0.624370000000     0.576160000000     0.479100000000     0.0345218  
C157     C      0.622280000000     0.514020000000     0.458280000000    -0.010099   
C158     C      0.783190000000     0.532650000000     0.484730000000    -0.0569646  
C159     C      0.178990000000     0.510210000000     0.437870000000    -0.0272789  
C160     C      0.364970000000     0.570280000000     0.483630000000    -0.0230157  
C161     C      0.408250000000     0.517060000000     0.447610000000    -0.0202859  
C162     C      0.405700000000     0.564660000000     0.491690000000    -0.0193961  
C163     C      0.286460000000     0.518350000000     0.487040000000    -0.0547859  
C164     C      0.256180000000     0.563690000000     0.435390000000    -0.054145   
C165     C      0.309600000000     0.539330000000     0.465780000000     0.0613038  
C166     C      0.367640000000     0.522460000000     0.439070000000    -0.022667   
C167     C      0.233050000000     0.542570000000     0.456530000000     0.0605174  
C168     C      0.174210000000     0.558170000000     0.482370000000    -0.0418656  
C169     C      0.248500000000     0.519880000000     0.482550000000    -0.0563425  
C170     C      0.133490000000     0.563530000000     0.473530000000     0.0309879  
C171     C      0.138800000000     0.514880000000     0.427340000000    -0.0213882  
C172     C      0.294150000000     0.562170000000     0.439880000000    -0.0570042  
C173     C      0.860860000000     0.427040000000     0.936210000000    -0.0274252  
C174     C      0.669280000000     0.485050000000     0.929330000000    -0.022484   
C175     C      0.628480000000     0.434400000000     0.971400000000    -0.018384   
C176     C      0.627650000000     0.481750000000     0.927060000000    -0.0196956  
C177     C      0.743610000000     0.432230000000     0.913470000000    -0.0547972  
C178     C      0.782670000000     0.475200000000     0.961370000000    -0.0541052  
C179     C      0.724710000000     0.451670000000     0.939650000000     0.0615437  
C180     C      0.670220000000     0.437130000000     0.974040000000    -0.023097   
C181     C      0.801510000000     0.456120000000     0.934920000000     0.0610791  
C182     C      0.850630000000     0.479780000000     0.898630000000    -0.0410582  
C183     C      0.781690000000     0.434430000000     0.910970000000    -0.0564758  
C184     C      0.891590000000     0.488620000000     0.898870000000     0.0268454  
C185     C      0.901990000000     0.434650000000     0.937700000000    -0.0215266  
C186     C      0.744580000000     0.473140000000     0.963770000000    -0.0567562  
C187     C      0.194080000000     0.490470000000     0.047270000000    -0.0275646  
C188     C      0.378760000000     0.515800000000     0.975290000000    -0.0210511  
C189     C      0.417960000000     0.453210000000     0.997980000000    -0.0235775  
C190     C      0.420490000000     0.513810000000     0.974550000000    -0.0231278  
C191     C      0.312060000000     0.509560000000     0.040330000000    -0.0547676  
C192     C      0.263550000000     0.492920000000     0.984810000000    -0.0541285  
C193     C      0.325610000000     0.495880000000     0.008000000000     0.0616158  
C194     C      0.376130000000     0.455000000000     0.998350000000    -0.0210791  
C195     C      0.250080000000     0.507120000000     0.016900000000     0.0614253  
C196     C      0.202390000000     0.551420000000     0.025390000000    -0.0409333  
C197     C      0.274550000000     0.515080000000     0.044900000000    -0.0567333  
C198     C      0.160900000000     0.556810000000     0.022020000000     0.0279865  
C199     C      0.152550000000     0.493430000000     0.043770000000    -0.0201798  
C200     C      0.301000000000     0.487220000000     0.980290000000    -0.0568018  
C201     C      0.984890000000     0.541760000000     0.657630000000    -0.0331635  
C202     C      0.984430000000     0.476100000000     0.842640000000    -0.0312776  
C203     C      0.995070000000     0.539420000000     0.887100000000    -0.000973342
C204     C      0.999580000000     0.471420000000     0.880470000000    -0.000174417
C205     C      0.018430000000     0.515150000000     0.766840000000    -0.0547214  
C206     C      0.947200000000     0.513360000000     0.739460000000    -0.0543599  
C207     C      0.988670000000     0.513610000000     0.790400000000     0.06163    
C208     C      0.979790000000     0.540130000000     0.849010000000    -0.0310354  
C209     C      0.977010000000     0.514200000000     0.715880000000     0.0611652  
C210     C      0.983390000000     0.477070000000     0.663610000000    -0.0457468  
C211     C      0.012780000000     0.515380000000     0.729860000000    -0.0565683  
C212     C      0.970510000000     0.472300000000     0.624880000000     0.0464519  
C213     C      0.971990000000     0.539790000000     0.618670000000     0.000105654
C214     C      0.952850000000     0.513040000000     0.776480000000    -0.056768   
C215     C      0.041860000000     0.447060000000     0.160180000000    -0.032981   
C216     C      0.060760000000     0.509090000000     0.345950000000    -0.0305218  
C217     C      0.043310000000     0.445970000000     0.388840000000    -0.00241654 
C218     C      0.046640000000     0.514900000000     0.383950000000    -0.00354934 
C219     C      0.016560000000     0.473890000000     0.271780000000    -0.0546205  
C220     C      0.085290000000     0.473790000000     0.238820000000    -0.0542301  
C221     C      0.048210000000     0.474130000000     0.292890000000     0.0617178  
C222     C      0.057640000000     0.445130000000     0.350340000000    -0.0311519  
C223     C      0.053600000000     0.474590000000     0.217690000000     0.0609036  
C224     C      0.041770000000     0.511610000000     0.166110000000    -0.0450989  
C225     C      0.019090000000     0.474010000000     0.234470000000    -0.056503   
C226     C      0.051620000000     0.516890000000     0.126590000000     0.0436746  
C227     C      0.051830000000     0.449200000000     0.120410000000    -0.000928228
C228     C      0.082740000000     0.473420000000     0.276210000000    -0.0570711  
C229     C      0.026890000000     0.820650000000     0.472640000000    -0.0272761  
C230     C      0.052210000000     0.634020000000     0.528770000000    -0.0227162  
C231     C      0.007280000000     0.597450000000     0.477100000000    -0.0199689  
C232     C      0.039430000000     0.595480000000     0.534140000000    -0.0202798  
C233     C      0.008290000000     0.715380000000     0.517970000000    -0.0549697  
C234     C      0.071830000000     0.740200000000     0.484430000000    -0.0535549  
C235     C      0.033270000000     0.690840000000     0.503750000000     0.0620069  
C236     C      0.019710000000     0.636090000000     0.471570000000    -0.022941   
C237     C      0.046780000000     0.764760000000     0.498590000000     0.0606977  
C238     C      0.058920000000     0.819920000000     0.530470000000    -0.0408501  
C239     C      0.014860000000     0.752020000000     0.515470000000    -0.0561946  
C240     C      0.070670000000     0.859000000000     0.525590000000     0.027768   
C241     C      0.038450000000     0.859350000000     0.466060000000    -0.0221845  
C242     C      0.065230000000     0.703510000000     0.486910000000    -0.0571904  
C243     C      0.002190000000     0.161750000000     0.557090000000    -0.0276532  
C244     C      0.975490000000     0.355650000000     0.547920000000    -0.0214462  
C245     C      0.031120000000     0.382350000000     0.500370000000    -0.022772   
C246     C      0.985870000000     0.395130000000     0.546500000000    -0.0223569  
C247     C      0.020510000000     0.277290000000     0.568070000000    -0.0544239  
C248     C      0.964450000000     0.242560000000     0.530860000000    -0.0542179  
C249     C      0.000240000000     0.296100000000     0.542400000000     0.0611033  
C250     C      0.020610000000     0.342730000000     0.501570000000    -0.0221305  
C251     C      0.984080000000     0.224040000000     0.557210000000     0.0611376  
C252     C      0.960540000000     0.184460000000     0.603170000000    -0.0411166  
C253     C      0.012690000000     0.241520000000     0.575400000000    -0.0567048  
C254     C      0.944480000000     0.147130000000     0.609260000000     0.0291217  
C255     C      0.987090000000     0.123860000000     0.561540000000    -0.0208316  
C256     C      0.972450000000     0.278260000000     0.523340000000    -0.0565008  
C257     C      0.668300000000     0.054200000000     0.500890000000    -0.0255486  
C258     C      0.850340000000     0.051220000000     0.585060000000    -0.0258168  
C259     C      0.899880000000     0.056270000000     0.524050000000    -0.0234912  
C260     C      0.890710000000     0.040910000000     0.588750000000    -0.02293    
C261     C      0.777150000000     0.021160000000     0.535600000000    -0.0546696  
C262     C      0.744560000000     0.087860000000     0.546210000000    -0.054166   
C263     C      0.799100000000     0.050610000000     0.544000000000     0.0615711  
C264     C      0.859380000000     0.066490000000     0.521690000000    -0.0254588  
C265     C      0.722580000000     0.058350000000     0.538000000000     0.0605435  
C266     C      0.664690000000     0.043370000000     0.565460000000    -0.0383097  
C267     C      0.739230000000     0.024850000000     0.532670000000    -0.0562038  
C268     C      0.623490000000     0.051190000000     0.564750000000     0.0301137  
C269     C      0.627130000000     0.061980000000     0.499890000000    -0.0150603  
C270     C      0.782520000000     0.084140000000     0.549250000000    -0.0570366  
C271     C      0.367330000000     0.059930000000     0.542170000000    -0.0251703  
C272     C      0.183930000000     0.031200000000     0.465760000000    -0.0257813  
C273     C      0.136110000000     0.058470000000     0.521870000000    -0.0250183  
C274     C      0.143260000000     0.021410000000     0.466560000000    -0.0231376  
C275     C      0.257760000000     0.018400000000     0.521730000000    -0.0542634  
C276     C      0.291260000000     0.076530000000     0.488050000000    -0.0543037  
C277     C      0.236180000000     0.043490000000     0.503670000000     0.0616641  
C278     C      0.176860000000     0.067700000000     0.519950000000    -0.0249227  
C279     C      0.312850000000     0.051390000000     0.506050000000     0.060946   
C280     C      0.370520000000     0.027120000000     0.485610000000    -0.0381626  
C281     C      0.295790000000     0.022170000000     0.522920000000    -0.0562355  
C282     C      0.411640000000     0.034880000000     0.483040000000     0.0301483  
C283     C      0.408470000000     0.067650000000     0.540060000000    -0.0154661  
C284     C      0.253230000000     0.072700000000     0.486760000000    -0.0568302  
C285     C      0.044590000000     0.639060000000     0.994930000000    -0.0237846  
C286     C      0.983370000000     0.825150000000     0.014770000000    -0.0260348  
C287     C      0.048320000000     0.864100000000     0.992060000000    -0.0228351  
C288     C      0.987810000000     0.864890000000     0.023310000000    -0.0229553  
C289     C      0.031280000000     0.747770000000     0.034930000000    -0.0544262  
C290     C      0.997700000000     0.716870000000     0.975130000000    -0.0531256  
C291     C      0.016880000000     0.769770000000     0.008040000000     0.0614396  
C292     C      0.042740000000     0.824390000000     0.984010000000    -0.0260242  
C293     C      0.011990000000     0.694880000000     0.002070000000     0.0602368  
C294     C      0.986300000000     0.640410000000     0.026630000000    -0.0372965  
C295     C      0.028940000000     0.710640000000     0.032080000000    -0.0560307  
C296     C      0.980360000000     0.600640000000     0.018630000000     0.0280949  
C297     C      0.039290000000     0.599340000000     0.986680000000    -0.018665   
C298     C      0.000100000000     0.753990000000     0.977950000000    -0.0573867  
C299     C      0.039430000000     0.347220000000     0.998970000000    -0.0241028  
C300     C      0.971610000000     0.162660000000     0.005800000000    -0.0261655  
C301     C      0.038510000000     0.123670000000     0.989520000000    -0.0220616  
C302     C      0.970310000000     0.123370000000     0.994560000000    -0.0231186  
C303     C      0.002800000000     0.241360000000     0.967040000000    -0.0547879  
C304     C      0.006670000000     0.269450000000     0.036420000000    -0.0540174  
C305     C      0.004330000000     0.218140000000     0.996430000000     0.0612246  
C306     C      0.038610000000     0.162910000000     0.001000000000    -0.0266881  
C307     C      0.005120000000     0.292670000000     0.007030000000     0.0603048  
C308     C      0.972680000000     0.348810000000     0.000590000000    -0.0381193  
C309     C      0.003240000000     0.278300000000     0.972160000000    -0.0562419  
C310     C      0.973700000000     0.388520000000     0.010780000000     0.0292496  
C311     C      0.040920000000     0.386720000000     0.009400000000    -0.0178702  
C312     C      0.006350000000     0.232490000000     0.031280000000    -0.0569624  
C313     C      0.671290000000     0.012850000000     0.021870000000    -0.0256091  
C314     C      0.863030000000     0.964130000000     0.986580000000    -0.0247721  
C315     C      0.896750000000     0.034530000000     0.986850000000    -0.0234194  
C316     C      0.901240000000     0.969900000000     0.970740000000    -0.0231962  
C317     C      0.776380000000     0.999000000000     0.968540000000    -0.0548893  
C318     C      0.756790000000     0.977320000000     0.037690000000    -0.0538188  
C319     C      0.803750000000     0.992420000000     0.993930000000     0.0617714  
C320     C      0.858740000000     0.027510000000     0.002570000000    -0.0251599  
C321     C      0.729400000000     0.983710000000     0.012200000000     0.0604604  
C322     C      0.673510000000     0.950980000000     0.000650000000    -0.0383573  
C323     C      0.739520000000     0.994820000000     0.977490000000    -0.0560666  
C324     C      0.633960000000     0.945260000000     0.013240000000     0.0302563  
C325     C      0.631990000000     0.007150000000     0.034900000000    -0.0137475  
C326     C      0.793700000000     0.981730000000     0.028780000000    -0.0570374  
C327     C      0.377630000000     0.982510000000     0.061580000000    -0.024348   
C328     C      0.184670000000     0.989540000000     0.004980000000    -0.0267918  
C329     C      0.147770000000     0.995680000000     0.073920000000    -0.0249359  
C330     C      0.143550000000     0.982380000000     0.008370000000    -0.0222363  
C331     C      0.263640000000     0.953250000000     0.041910000000    -0.0544802  
C332     C      0.298240000000     0.017750000000     0.025370000000    -0.0543557  
C333     C      0.242490000000     0.983900000000     0.036270000000     0.0612235  
C334     C      0.188770000000     0.002700000000     0.069360000000    -0.0253031  
C335     C      0.319380000000     0.987070000000     0.030890000000     0.0608557  
C336     C      0.373070000000     0.967530000000     0.998110000000    -0.037123   
C337     C      0.301780000000     0.954700000000     0.039300000000    -0.0564365  
C338     C      0.414090000000     0.974810000000     0.993190000000     0.0282866  
C339     C      0.418630000000     0.989940000000     0.057290000000    -0.0176787  
C340     C      0.260120000000     0.016320000000     0.028070000000    -0.0567225  
C341     C      0.055940000000     0.053500000000     0.896700000000    -0.027385   
C342     C      0.942630000000     0.060550000000     0.733870000000    -0.0259727  
C343     C      0.995810000000     0.086290000000     0.681770000000    -0.0203476  
C344     C      0.930220000000     0.076070000000     0.697870000000    -0.0232043  
C345     C      0.990590000000     0.092260000000     0.807300000000    -0.0539708  
C346     C      0.007300000000     0.021340000000     0.823890000000    -0.054402   
C347     C      0.988500000000     0.066210000000     0.780430000000     0.0610204  
C348     C      0.007010000000     0.070600000000     0.718070000000    -0.0266292  
C349     C      0.009540000000     0.047410000000     0.850710000000     0.0610887  
C350     C      0.992030000000     0.042550000000     0.913360000000    -0.0387214  
C351     C      0.000990000000     0.083050000000     0.842180000000    -0.0570079  
C352     C      0.003840000000     0.026460000000     0.949440000000     0.023918   
C353     C      0.069440000000     0.037270000000     0.931970000000    -0.020664   
C354     C      0.996860000000     0.030530000000     0.789030000000    -0.055998   
C355     C      0.062410000000     0.939230000000     0.234280000000    -0.0288009  
C356     C      0.043400000000     0.019470000000     0.413220000000    -0.0259392  
C357     C      0.055710000000     0.958210000000     0.459730000000    -0.0224271  
C358     C      0.032160000000     0.020460000000     0.452760000000    -0.0224911  
C359     C      0.020220000000     0.969000000000     0.339230000000    -0.0547139  
C360     C      0.087380000000     0.988770000000     0.309210000000    -0.0543858  
C361     C      0.048560000000     0.980660000000     0.361630000000     0.0610909  
C362     C      0.066470000000     0.958270000000     0.420070000000    -0.0251652  
C363     C      0.059040000000     0.977090000000     0.286820000000     0.0609642  
C364     C      0.041810000000     0.001280000000     0.228960000000    -0.0424861  
C365     C      0.025280000000     0.967230000000     0.302130000000    -0.0562324  
C366     C      0.052510000000     0.002140000000     0.189140000000     0.0294327  
C367     C      0.074140000000     0.938700000000     0.194880000000    -0.018461   
C368     C      0.082300000000     0.990610000000     0.346310000000    -0.0564488  
Cu1      Cu     0.013740000000     0.991810000000     0.102870000000     0.838795   
Cu2      Cu     0.005820000000     0.999420000000     0.036990000000     0.848932   
Cu3      Cu     0.038600000000     0.000330000000     0.558200000000     0.841883   
Cu4      Cu     0.044440000000     0.970900000000     0.617830000000     0.824358   
Cu5      Cu     0.009740000000     0.455660000000     0.002550000000     1.1963     
Cu6      Cu     0.012570000000     0.531970000000     0.009040000000     1.20087    
Cu7      Cu     0.010370000000     0.454100000000     0.507880000000     1.18807    
Cu8      Cu     0.022410000000     0.529240000000     0.503550000000     1.1959     
Cu9      Cu     0.485390000000     0.972290000000     0.023460000000     1.20755    
Cu10     Cu     0.562910000000     0.976050000000     0.018520000000     1.21918    
Cu11     Cu     0.478830000000     0.041380000000     0.521300000000     1.21331    
Cu12     Cu     0.556590000000     0.043230000000     0.526250000000     1.20521    
Cu13     Cu     0.484380000000     0.474310000000     0.967620000000     1.21175    
Cu14     Cu     0.561700000000     0.470550000000     0.963160000000     1.19814    
Cu15     Cu     0.475620000000     0.547760000000     0.465990000000     1.18427    
Cu16     Cu     0.552750000000     0.546000000000     0.471790000000     1.21304    
H1       H      0.507760000000     0.482690000000     0.663380000000     0.0405871  
H2       H      0.569140000000     0.493490000000     0.787030000000     0.0340259  
H3       H      0.453230000000     0.492990000000     0.793610000000     0.040362   
H4       H      0.541080000000     0.599380000000     0.601550000000     0.0344709  
H5       H      0.553950000000     0.447720000000     0.830140000000     0.0351371  
H6       H      0.447820000000     0.548390000000     0.640940000000     0.0344356  
H7       H      0.563610000000     0.556430000000     0.645160000000     0.0340191  
H8       H      0.449150000000     0.555640000000     0.574150000000     0.0373815  
H9       H      0.457490000000     0.485670000000     0.860600000000     0.0342739  
H10      H      0.510120000000     0.456340000000     0.723600000000     0.0435932  
H11      H      0.573810000000     0.484810000000     0.853440000000     0.0364446  
H12      H      0.504760000000     0.587940000000     0.709980000000     0.0437869  
H13      H      0.546120000000     0.527580000000     0.812640000000     0.0373768  
H14      H      0.566510000000     0.565030000000     0.579100000000     0.0401943  
H15      H      0.474690000000     0.514680000000     0.618590000000     0.038047   
H16      H      0.543580000000     0.519620000000     0.620890000000     0.0385181  
H17      H      0.507640000000     0.561590000000     0.770190000000     0.0403823  
H18      H      0.478760000000     0.527030000000     0.816480000000     0.0406959  
H19      H      0.466360000000     0.593740000000     0.598050000000     0.0342368  
H20      H      0.491970000000     0.417440000000     0.806640000000     0.0373034  
H21      H      0.528740000000     0.454610000000     0.267610000000     0.0399657  
H22      H      0.473550000000     0.478220000000     0.144000000000     0.0341058  
H23      H      0.589540000000     0.475260000000     0.140000000000     0.0400747  
H24      H      0.486080000000     0.564810000000     0.336260000000     0.0367548  
H25      H      0.488880000000     0.436430000000     0.097070000000     0.0341032  
H26      H      0.586530000000     0.518700000000     0.298370000000     0.0342951  
H27      H      0.470980000000     0.522770000000     0.289820000000     0.0340251  
H28      H      0.581520000000     0.522160000000     0.365660000000     0.0380357  
H29      H      0.586620000000     0.475090000000     0.072220000000     0.0319889  
H30      H      0.529970000000     0.433840000000     0.205120000000     0.0432623  
H31      H      0.470260000000     0.476010000000     0.077260000000     0.0373401  
H32      H      0.534190000000     0.563610000000     0.231090000000     0.0441633  
H33      H      0.498080000000     0.514000000000     0.122370000000     0.0373574  
H34      H      0.465750000000     0.526440000000     0.356940000000     0.0380358  
H35      H      0.559130000000     0.483860000000     0.318120000000     0.0363414  
H36      H      0.492410000000     0.486260000000     0.313250000000     0.0363363  
H37      H      0.535370000000     0.542890000000     0.168680000000     0.040077   
H38      H      0.565550000000     0.512140000000     0.120250000000     0.0397689  
H39      H      0.567710000000     0.561820000000     0.342470000000     0.0372474  
H40      H      0.549640000000     0.402370000000     0.118100000000     0.037148   
H41      H      0.517360000000     0.741810000000     0.536460000000     0.0405298  
H42      H      0.577770000000     0.868870000000     0.526440000000     0.0343305  
H43      H      0.461620000000     0.867230000000     0.523780000000     0.039974   
H44      H      0.558040000000     0.676480000000     0.424260000000     0.0364116  
H45      H      0.556840000000     0.912190000000     0.570160000000     0.0352039  
H46      H      0.461380000000     0.722540000000     0.464450000000     0.0342995  
H47      H      0.577350000000     0.719170000000     0.469410000000     0.0344852  
H48      H      0.458890000000     0.656330000000     0.456990000000     0.0398227  
H49      H      0.460410000000     0.933890000000     0.528840000000     0.0335615  
H50      H      0.517760000000     0.802080000000     0.562320000000     0.0434333  
H51      H      0.577570000000     0.935190000000     0.533230000000     0.0398318  
H52      H      0.522400000000     0.786890000000     0.430210000000     0.0439271  
H53      H      0.554420000000     0.891520000000     0.490410000000     0.0378308  
H54      H      0.576390000000     0.653050000000     0.462240000000     0.0410112  
H55      H      0.482760000000     0.698810000000     0.500970000000     0.0378811  
H56      H      0.551400000000     0.696800000000     0.503890000000     0.0378045  
H57      H      0.522660000000     0.847110000000     0.456030000000     0.040133   
H58      H      0.485990000000     0.890400000000     0.489020000000     0.0404706  
H59      H      0.482090000000     0.678730000000     0.421000000000     0.0356147  
H60      H      0.497020000000     0.883600000000     0.598680000000     0.0372117  
H61      H      0.515500000000     0.330890000000     0.441950000000     0.0399677  
H62      H      0.571820000000     0.218560000000     0.502720000000     0.0341212  
H63      H      0.456490000000     0.214330000000     0.490600000000     0.0397484  
H64      H      0.543830000000     0.428670000000     0.532430000000     0.0353841  
H65      H      0.560370000000     0.162920000000     0.472500000000     0.0350203  
H66      H      0.450860000000     0.373170000000     0.492000000000     0.0340984  
H67      H      0.565990000000     0.373990000000     0.506070000000     0.0338676  
H68      H      0.452110000000     0.438550000000     0.476700000000     0.0366087  
H69      H      0.457680000000     0.148850000000     0.505920000000     0.0305122  
H70      H      0.518510000000     0.265530000000     0.438410000000     0.0434513  
H71      H      0.573060000000     0.153180000000     0.517870000000     0.0382127  
H72      H      0.502940000000     0.324180000000     0.556710000000     0.0437952  
H73      H      0.543460000000     0.206480000000     0.540370000000     0.0371091  
H74      H      0.567830000000     0.439140000000     0.491810000000     0.037345   
H75      H      0.480010000000     0.384110000000     0.454560000000     0.0365576  
H76      H      0.546920000000     0.384840000000     0.462810000000     0.0366905  
H77      H      0.506000000000     0.258820000000     0.553160000000     0.0401944  
H78      H      0.476950000000     0.203630000000     0.533030000000     0.0395336  
H79      H      0.464400000000     0.428530000000     0.522190000000     0.0354966  
H80      H      0.503720000000     0.174770000000     0.428050000000     0.0373958  
H81      H      0.529670000000     0.771790000000     0.948160000000     0.0406274  
H82      H      0.590180000000     0.645480000000     0.970940000000     0.0343095  
H83      H      0.474200000000     0.649980000000     0.974560000000     0.039862   
H84      H      0.570970000000     0.847810000000     0.053000000000     0.0379823  
H85      H      0.569370000000     0.599220000000     0.930850000000     0.0347785  
H86      H      0.473700000000     0.795920000000     0.018020000000     0.0346055  
H87      H      0.589360000000     0.802150000000     0.011000000000     0.0346005  
H88      H      0.469500000000     0.862580000000     0.019590000000     0.0410994  
H89      H      0.471730000000     0.583010000000     0.974890000000     0.028792   
H90      H      0.530230000000     0.709320000000     0.928380000000     0.0436032  
H91      H      0.587960000000     0.578550000000     0.970190000000     0.0390572  
H92      H      0.536440000000     0.737350000000     0.058290000000     0.0442242  
H93      H      0.566250000000     0.626260000000     0.008580000000     0.0370714  
H94      H      0.586110000000     0.868760000000     0.012330000000     0.0397445  
H95      H      0.494310000000     0.817380000000     0.979700000000     0.0383306  
H96      H      0.561810000000     0.821020000000     0.975610000000     0.0375384  
H97      H      0.536820000000     0.674920000000     0.038540000000     0.0401076  
H98      H      0.498900000000     0.628840000000     0.010380000000     0.0396179  
H99      H      0.492050000000     0.843500000000     0.057820000000     0.036584   
H100     H      0.508640000000     0.624460000000     0.899250000000     0.0372603  
H101     H      0.516140000000     0.274270000000     0.034520000000     0.0405416  
H102     H      0.456680000000     0.146490000000     0.019980000000     0.0340318  
H103     H      0.572590000000     0.151410000000     0.014120000000     0.0398132  
H104     H      0.475650000000     0.344860000000     0.925710000000     0.0366126  
H105     H      0.479500000000     0.102230000000     0.061590000000     0.0343969  
H106     H      0.571700000000     0.294830000000     0.962870000000     0.0343408  
H107     H      0.455960000000     0.301200000000     0.969640000000     0.0341655  
H108     H      0.575980000000     0.361180000000     0.958220000000     0.0374856  
H109     H      0.575590000000     0.084590000000     0.016320000000     0.0300135  
H110     H      0.516340000000     0.212940000000     0.057640000000     0.0433626  
H111     H      0.459080000000     0.079930000000     0.024090000000     0.0379447  
H112     H      0.508740000000     0.233950000000     0.926470000000     0.044046   
H113     H      0.479800000000     0.125770000000     0.982640000000     0.037587   
H114     H      0.458770000000     0.367570000000     0.964740000000     0.0386775  
H115     H      0.551400000000     0.317780000000     0.000480000000     0.0379162  
H116     H      0.483180000000     0.321610000000     0.004430000000     0.0372439  
H117     H      0.508970000000     0.172670000000     0.949560000000     0.0400253  
H118     H      0.547600000000     0.128820000000     0.979400000000     0.0402047  
H119     H      0.552240000000     0.340790000000     0.921350000000     0.0354361  
H120     H      0.540140000000     0.130100000000     0.090100000000     0.0374514  
H121     H      0.511190000000     0.976030000000     0.718870000000     0.0410342  
H122     H      0.571360000000     0.991270000000     0.842470000000     0.0341905  
H123     H      0.455650000000     0.983690000000     0.848790000000     0.0401913  
H124     H      0.543990000000     0.092230000000     0.656570000000     0.0354649  
H125     H      0.558370000000     0.945340000000     0.886210000000     0.0352334  
H126     H      0.449980000000     0.041040000000     0.695390000000     0.0346922  
H127     H      0.565650000000     0.049710000000     0.700880000000     0.0342504  
H128     H      0.452020000000     0.048110000000     0.628710000000     0.038599   
H129     H      0.460110000000     0.977870000000     0.915830000000     0.0321831  
H130     H      0.513830000000     0.950210000000     0.779300000000     0.0436338  
H131     H      0.576550000000     0.983680000000     0.908770000000     0.0398758  
H132     H      0.504090000000     0.081470000000     0.764630000000     0.0438697  
H133     H      0.546240000000     0.024370000000     0.867520000000     0.0375412  
H134     H      0.569210000000     0.057330000000     0.634750000000     0.0398128  
H135     H      0.477390000000     0.007440000000     0.673490000000     0.0391733  
H136     H      0.546040000000     0.012670000000     0.676630000000     0.0384142  
H137     H      0.506840000000     0.055660000000     0.825040000000     0.0401019  
H138     H      0.478650000000     0.019790000000     0.871050000000     0.0403491  
H139     H      0.468730000000     0.086390000000     0.652630000000     0.0342876  
H140     H      0.498830000000     0.911440000000     0.862570000000     0.0374207  
H141     H      0.537140000000     0.952590000000     0.322000000000     0.0400831  
H142     H      0.478680000000     0.970790000000     0.199480000000     0.0341484  
H143     H      0.594210000000     0.981290000000     0.194360000000     0.0400888  
H144     H      0.484050000000     0.057420000000     0.392100000000     0.0385241  
H145     H      0.498850000000     0.931610000000     0.151970000000     0.0353738  
H146     H      0.588270000000     0.021190000000     0.352530000000     0.0341091  
H147     H      0.472730000000     0.014780000000     0.345280000000     0.0343756  
H148     H      0.583770000000     0.023350000000     0.419800000000     0.037172   
H149     H      0.590730000000     0.981430000000     0.126770000000     0.0318227  
H150     H      0.540080000000     0.932660000000     0.259330000000     0.0435187  
H151     H      0.474870000000     0.968720000000     0.132870000000     0.0369255  
H152     H      0.530330000000     0.061910000000     0.286580000000     0.0442493  
H153     H      0.498390000000     0.009430000000     0.178030000000     0.0375464  
H154     H      0.468140000000     0.016920000000     0.412490000000     0.0390711  
H155     H      0.564530000000     0.983820000000     0.372220000000     0.0365492  
H156     H      0.497900000000     0.980140000000     0.368020000000     0.0364885  
H157     H      0.533050000000     0.042000000000     0.223980000000     0.0403977  
H158     H      0.565750000000     0.015420000000     0.175230000000     0.0403109  
H159     H      0.566060000000     0.061930000000     0.397290000000     0.035585   
H160     H      0.562950000000     0.904860000000     0.172570000000     0.037434   
H161     H      0.806780000000     0.536890000000     0.467710000000     0.0406499  
H162     H      0.674270000000     0.486720000000     0.458990000000     0.0325267  
H163     H      0.678650000000     0.594250000000     0.494610000000     0.0375789  
H164     H      0.867610000000     0.459980000000     0.563500000000     0.040944   
H165     H      0.625420000000     0.520970000000     0.429490000000     0.0344229  
H166     H      0.831380000000     0.566350000000     0.552490000000     0.0332075  
H167     H      0.823180000000     0.459490000000     0.515010000000     0.0333495  
H168     H      0.900610000000     0.558060000000     0.558330000000     0.0366915  
H169     H      0.609610000000     0.595330000000     0.496590000000     0.0229871  
H170     H      0.745210000000     0.548340000000     0.443600000000     0.043282   
H171     H      0.605770000000     0.489260000000     0.459740000000     0.0303478  
H172     H      0.759470000000     0.505910000000     0.568890000000     0.0437272  
H173     H      0.655120000000     0.495640000000     0.502680000000     0.0363085  
H174     H      0.892300000000     0.452990000000     0.522190000000     0.0413765  
H175     H      0.854260000000     0.554670000000     0.511210000000     0.0365094  
H176     H      0.849580000000     0.490960000000     0.489000000000     0.0356178  
H177     H      0.698170000000     0.517350000000     0.545030000000     0.0400885  
H178     H      0.657980000000     0.562660000000     0.524710000000     0.0389652  
H179     H      0.873550000000     0.530720000000     0.588110000000     0.0379574  
H180     H      0.657230000000     0.581610000000     0.417020000000     0.0345515  
H181     H      0.311400000000     0.578660000000     0.423110000000     0.0404856  
H182     H      0.194420000000     0.500900000000     0.413900000000     0.0327581  
H183     H      0.186250000000     0.583990000000     0.491260000000     0.0392366  
H184     H      0.411160000000     0.496180000000     0.468610000000     0.038342   
H185     H      0.136830000000     0.531580000000     0.402800000000     0.0367626  
H186     H      0.351120000000     0.579120000000     0.508660000000     0.0321789  
H187     H      0.355660000000     0.496280000000     0.431340000000     0.0317342  
H188     H      0.418120000000     0.590590000000     0.499360000000     0.0330226  
H189     H      0.118190000000     0.568190000000     0.498810000000     0.0323584  
H190     H      0.244700000000     0.581260000000     0.415270000000     0.0431857  
H191     H      0.126270000000     0.488500000000     0.421640000000     0.0368499  
H192     H      0.297940000000     0.500660000000     0.507050000000     0.0436435  
H193     H      0.181020000000     0.489320000000     0.459010000000     0.0361386  
H194     H      0.422680000000     0.507890000000     0.423100000000     0.032115   
H195     H      0.362040000000     0.591710000000     0.463160000000     0.0360348  
H196     H      0.365000000000     0.541060000000     0.415930000000     0.0357926  
H197     H      0.231280000000     0.503280000000     0.499240000000     0.0401428  
H198     H      0.176430000000     0.539070000000     0.505130000000     0.0397575  
H199     H      0.408890000000     0.545810000000     0.514520000000     0.0364947  
H200     H      0.149110000000     0.599650000000     0.415940000000     0.0367144  
H201     H      0.730640000000     0.488760000000     0.983990000000     0.0408887  
H202     H      0.852650000000     0.413660000000     0.961600000000     0.0339007  
H203     H      0.834590000000     0.504920000000     0.896060000000     0.03865    
H204     H      0.620960000000     0.413880000000     0.951150000000     0.0373323  
H205     H      0.908720000000     0.448460000000     0.963190000000     0.0462388  
H206     H      0.679830000000     0.493140000000     0.902550000000     0.0317825  
H207     H      0.681470000000     0.410170000000     0.979890000000     0.0325829  
H208     H      0.615800000000     0.508310000000     0.920820000000     0.0338766  
H209     H      0.899700000000     0.497930000000     0.871790000000     0.0232395  
H210     H      0.797550000000     0.492230000000     0.979750000000     0.0439757  
H211     H      0.917620000000     0.409280000000     0.936530000000     0.0339487  
H212     H      0.728660000000     0.415850000000     0.894550000000     0.0435124  
H213     H      0.855220000000     0.408520000000     0.913530000000     0.0351862  
H214     H      0.617220000000     0.426160000000     0.997780000000     0.0337137  
H215     H      0.676400000000     0.506260000000     0.949050000000     0.036421   
H216     H      0.677380000000     0.455210000000     0.996660000000     0.0366411  
H217     H      0.795570000000     0.419730000000     0.890020000000     0.0398674  
H218     H      0.844520000000     0.463000000000     0.874720000000     0.0380188  
H219     H      0.620070000000     0.462970000000     0.905180000000     0.0369124  
H220     H      0.887060000000     0.515730000000     0.963030000000     0.037291   
H221     H      0.310770000000     0.476570000000     0.955080000000     0.0408722  
H222     H      0.202040000000     0.462110000000     0.043040000000     0.0332423  
H223     H      0.216730000000     0.568220000000     0.005160000000     0.0392121  
H224     H      0.428500000000     0.461080000000     0.024770000000     0.0387743  
H225     H      0.143960000000     0.480620000000     0.018320000000     0.0369672  
H226     H      0.370600000000     0.543900000000     0.980700000000     0.0322609  
H227     H      0.365840000000     0.438120000000     0.020720000000     0.0312001  
H228     H      0.430330000000     0.529970000000     0.951540000000     0.037323   
H229     H      0.153660000000     0.583900000000     0.031750000000     0.0272659  
H230     H      0.244920000000     0.486570000000     0.963140000000     0.0437708  
H231     H      0.138930000000     0.479440000000     0.066350000000     0.035772   
H232     H      0.330720000000     0.516300000000     0.061840000000     0.0434289  
H233     H      0.202540000000     0.498500000000     0.074810000000     0.0357764  
H234     H      0.426500000000     0.425330000000     0.992580000000     0.033988   
H235     H      0.367900000000     0.507950000000     0.948530000000     0.0361608  
H236     H      0.365320000000     0.444140000000     0.972660000000     0.0358792  
H237     H      0.264700000000     0.525880000000     0.070020000000     0.0401534  
H238     H      0.211330000000     0.560510000000     0.052440000000     0.0386285  
H239     H      0.431920000000     0.525170000000     0.999740000000     0.037001   
H240     H      0.157800000000     0.521610000000     0.961970000000     0.0352847  
H241     H      0.929430000000     0.511590000000     0.794180000000     0.0396873  
H242     H      0.974960000000     0.567250000000     0.669440000000     0.0340524  
H243     H      0.973030000000     0.454480000000     0.680160000000     0.0397864  
H244     H      0.023970000000     0.548710000000     0.886480000000     0.0364584  
H245     H      0.942000000000     0.544660000000     0.618000000000     0.0340687  
H246     H      0.995310000000     0.454090000000     0.825650000000     0.0349795  
H247     H      0.986930000000     0.566250000000     0.836640000000     0.0341573  
H248     H      0.986770000000     0.447390000000     0.892670000000     0.0447002  
H249     H      0.984100000000     0.447940000000     0.614340000000     0.0289217  
H250     H      0.919570000000     0.512120000000     0.729030000000     0.0431488  
H251     H      0.985270000000     0.561660000000     0.603330000000     0.0369745  
H252     H      0.046100000000     0.515370000000     0.777240000000     0.0443779  
H253     H      0.015350000000     0.541950000000     0.658120000000     0.0368983  
H254     H      0.979400000000     0.558790000000     0.903700000000     0.0388433  
H255     H      0.954090000000     0.473690000000     0.843140000000     0.0405598  
H256     H      0.949420000000     0.538030000000     0.850000000000     0.0368153  
H257     H      0.036300000000     0.515610000000     0.712220000000     0.0402546  
H258     H      0.013860000000     0.475950000000     0.664190000000     0.0399731  
H259     H      0.029460000000     0.466050000000     0.878620000000     0.0365639  
H260     H      0.903830000000     0.490510000000     0.641620000000     0.0372367  
H261     H      0.107550000000     0.473420000000     0.292050000000     0.0396324  
H262     H      0.053240000000     0.421810000000     0.171260000000     0.0339954  
H263     H      0.052420000000     0.534530000000     0.182020000000     0.0400852  
H264     H      0.014290000000     0.436970000000     0.388790000000     0.0389852  
H265     H      0.081720000000     0.444490000000     0.117490000000     0.03335    
H266     H      0.053150000000     0.532760000000     0.329500000000     0.034148   
H267     H      0.047570000000     0.420300000000     0.337240000000     0.0339194  
H268     H      0.064030000000     0.535290000000     0.397340000000     0.041827   
H269     H      0.036040000000     0.540490000000     0.116910000000     0.0338943  
H270     H      0.111990000000     0.474210000000     0.226230000000     0.0431291  
H271     H      0.037500000000     0.427260000000     0.106090000000     0.0379477  
H272     H      0.989850000000     0.474340000000     0.284350000000     0.0449988  
H273     H      0.011520000000     0.446160000000     0.162920000000     0.0375917  
H274     H      0.058910000000     0.426320000000     0.405170000000     0.0348871  
H275     H      0.091190000000     0.507210000000     0.346350000000     0.0336254  
H276     H      0.088120000000     0.444210000000     0.350470000000     0.0340719  
H277     H      0.994190000000     0.474550000000     0.218770000000     0.040766   
H278     H      0.011400000000     0.511670000000     0.168740000000     0.0401686  
H279     H      0.018580000000     0.526340000000     0.382390000000     0.0382248  
H280     H      0.120200000000     0.500680000000     0.136460000000     0.0354423  
H281     H      0.084960000000     0.685100000000     0.475670000000     0.0422238  
H282     H      0.024550000000     0.806960000000     0.446260000000     0.0335596  
H283     H      0.079860000000     0.805570000000     0.546660000000     0.0406803  
H284     H      0.979880000000     0.597090000000     0.490100000000     0.0385472  
H285     H      0.062900000000     0.860060000000     0.448360000000     0.0366123  
H286     H      0.054680000000     0.646950000000     0.555510000000     0.0321443  
H287     H      0.998170000000     0.650510000000     0.456250000000     0.0330035  
H288     H      0.060510000000     0.580600000000     0.549500000000     0.0316521  
H289     H      0.068340000000     0.873060000000     0.551690000000     0.0323032  
H290     H      0.096480000000     0.749590000000     0.471360000000     0.0437216  
H291     H      0.015960000000     0.874190000000     0.452700000000     0.0332512  
H292     H      0.983590000000     0.706010000000     0.530960000000     0.0441994  
H293     H      0.999490000000     0.820430000000     0.485710000000     0.0368243  
H294     H      0.005060000000     0.584130000000     0.450600000000     0.0349269  
H295     H      0.079650000000     0.633980000000     0.515780000000     0.0370638  
H296     H      0.045410000000     0.636330000000     0.455530000000     0.0385286  
H297     H      0.995020000000     0.770370000000     0.526600000000     0.0409248  
H298     H      0.032770000000     0.819410000000     0.545790000000     0.0403819  
H299     H      0.013550000000     0.595370000000     0.549810000000     0.037851   
H300     H      0.123070000000     0.840440000000     0.482140000000     0.037095   
H301     H      0.956440000000     0.292140000000     0.503300000000     0.0404837  
H302     H      0.011260000000     0.165170000000     0.528810000000     0.0334961  
H303     H      0.939320000000     0.204950000000     0.609120000000     0.0391573  
H304     H      0.054670000000     0.387110000000     0.518620000000     0.0400327  
H305     H      0.966780000000     0.118270000000     0.540100000000     0.0424343  
H306     H      0.966830000000     0.349100000000     0.575760000000     0.0325259  
H307     H      0.045260000000     0.326520000000     0.495130000000     0.0320978  
H308     H      0.961010000000     0.411160000000     0.552280000000     0.036246   
H309     H      0.940120000000     0.142960000000     0.638420000000     0.0282562  
H310     H      0.942430000000     0.229420000000     0.516590000000     0.0433313  
H311     H      0.009620000000     0.104100000000     0.559340000000     0.042644   
H312     H      0.041980000000     0.290650000000     0.582920000000     0.0439387  
H313     H      0.026400000000     0.165250000000     0.574880000000     0.0365497  
H314     H      0.039640000000     0.389320000000     0.472690000000     0.0337599  
H315     H      0.951930000000     0.350850000000     0.529600000000     0.0357136  
H316     H      0.999310000000     0.337290000000     0.480930000000     0.0359281  
H317     H      0.028400000000     0.227760000000     0.595750000000     0.0401554  
H318     H      0.983550000000     0.188550000000     0.622320000000     0.0382931  
H319     H      0.006850000000     0.401000000000     0.567290000000     0.037338   
H320     H      0.904710000000     0.148260000000     0.551290000000     0.0375968  
H321     H      0.798840000000     0.107290000000     0.555970000000     0.0408781  
H322     H      0.681960000000     0.070680000000     0.480000000000     0.0322715  
H323     H      0.676050000000     0.051370000000     0.591970000000     0.0372411  
H324     H      0.903810000000     0.028640000000     0.513910000000     0.0416331  
H325     H      0.622040000000     0.091150000000     0.501610000000     0.0353539  
H326     H      0.834060000000     0.034390000000     0.603760000000     0.0336539  
H327     H      0.849590000000     0.060970000000     0.493990000000     0.03324    
H328     H      0.901220000000     0.049300000000     0.615370000000     0.0401066  
H329     H      0.610460000000     0.033350000000     0.584760000000     0.0241557  
H330     H      0.732150000000     0.113730000000     0.550610000000     0.0430584  
H331     H      0.616460000000     0.052650000000     0.473740000000     0.0334072  
H332     H      0.789510000000     0.995200000000     0.531650000000     0.0444242  
H333     H      0.672740000000     0.025550000000     0.494290000000     0.0356789  
H334     H      0.916600000000     0.074770000000     0.507550000000     0.03371    
H335     H      0.846780000000     0.079630000000     0.593020000000     0.0383234  
H336     H      0.856480000000     0.095590000000     0.526940000000     0.0358708  
H337     H      0.722910000000     0.001530000000     0.526600000000     0.0402584  
H338     H      0.668820000000     0.014080000000     0.562430000000     0.0386492  
H339     H      0.893700000000     0.011500000000     0.586230000000     0.04116    
H340     H      0.638680000000     0.119460000000     0.561980000000     0.0342261  
H341     H      0.237210000000     0.092370000000     0.472460000000     0.0402465  
H342     H      0.353720000000     0.082620000000     0.556030000000     0.0325204  
H343     H      0.358850000000     0.025130000000     0.458100000000     0.0372727  
H344     H      0.131970000000     0.036100000000     0.540980000000     0.0520847  
H345     H      0.413330000000     0.094400000000     0.528150000000     0.0358168  
H346     H      0.199370000000     0.008520000000     0.453840000000     0.0333039  
H347     H      0.187200000000     0.071820000000     0.547700000000     0.0343136  
H348     H      0.132350000000     0.020240000000     0.438820000000     0.0335641  
H349     H      0.424800000000     0.011320000000     0.470420000000     0.0244077  
H350     H      0.304030000000     0.099010000000     0.474770000000     0.0432677  
H351     H      0.419490000000     0.068050000000     0.567730000000     0.03323    
H352     H      0.245030000000     0.995730000000     0.534720000000     0.0453431  
H353     H      0.363000000000     0.035370000000     0.558430000000     0.0363392  
H354     H      0.120210000000     0.081910000000     0.531270000000     0.0395322  
H355     H      0.187820000000     0.055030000000     0.448330000000     0.0353504  
H356     H      0.180280000000     0.093070000000     0.504790000000     0.0354645  
H357     H      0.311840000000     0.002190000000     0.536760000000     0.0410062  
H358     H      0.366580000000     0.000850000000     0.499040000000     0.0391621  
H359     H      0.139610000000     0.994870000000     0.479360000000     0.0469546  
H360     H      0.396190000000     0.100040000000     0.462320000000     0.0355004  
H361     H      0.988810000000     0.770340000000     0.956750000000     0.0408058  
H362     H      0.060490000000     0.651300000000     0.972660000000     0.0330119  
H363     H      0.959280000000     0.654050000000     0.028330000000     0.0380966  
H364     H      0.065730000000     0.867230000000     0.016300000000     0.0397454  
H365     H      0.027580000000     0.595840000000     0.959420000000     0.0367115  
H366     H      0.967170000000     0.812540000000     0.036620000000     0.034122   
H367     H      0.070010000000     0.811190000000     0.983300000000     0.0336302  
H368     H      0.960970000000     0.878620000000     0.021190000000     0.0377486  
H369     H      0.966260000000     0.588890000000     0.042190000000     0.0264775  
H370     H      0.984620000000     0.705140000000     0.951900000000     0.0431811  
H371     H      0.066640000000     0.586610000000     0.986980000000     0.0396585  
H372     H      0.044300000000     0.759500000000     0.058200000000     0.044565   
H373     H      0.060710000000     0.641860000000     0.020120000000     0.0369738  
H374     H      0.062060000000     0.877370000000     0.969100000000     0.0362644  
H375     H      0.967850000000     0.822290000000     0.989240000000     0.0362546  
H376     H      0.029840000000     0.821520000000     0.957110000000     0.0361483  
H377     H      0.040260000000     0.694270000000     0.053250000000     0.0408073  
H378     H      0.999930000000     0.643060000000     0.053210000000     0.0391924  
H379     H      0.998400000000     0.868200000000     0.051050000000     0.0422833  
H380     H      0.961730000000     0.616690000000     0.952740000000     0.0347455  
H381     H      0.007710000000     0.215160000000     0.054450000000     0.041002   
H382     H      0.064020000000     0.333700000000     0.010180000000     0.0322044  
H383     H      0.947960000000     0.336190000000     0.012590000000     0.0374604  
H384     H      0.040020000000     0.121810000000     0.959810000000     0.0399284  
H385     H      0.044680000000     0.389590000000     0.038820000000     0.0355666  
H386     H      0.946180000000     0.175960000000     0.996250000000     0.0330985  
H387     H      0.062240000000     0.176430000000     0.987990000000     0.0333765  
H388     H      0.948600000000     0.109240000000     0.009750000000     0.037272   
H389     H      0.949980000000     0.401400000000     0.997520000000     0.0232991  
H390     H      0.008250000000     0.280090000000     0.063370000000     0.043246   
H391     H      0.065110000000     0.398600000000     0.996080000000     0.0357417  
H392     H      0.001360000000     0.230720000000     0.940090000000     0.0433207  
H393     H      0.040370000000     0.344950000000     0.969210000000     0.0360183  
H394     H      0.062470000000     0.109610000000     0.001170000000     0.0434239  
H395     H      0.972310000000     0.164230000000     0.035600000000     0.0372551  
H396     H      0.042280000000     0.164450000000     0.030600000000     0.0375444  
H397     H      0.002220000000     0.295600000000     0.948960000000     0.0400279  
H398     H      0.970270000000     0.346660000000     0.970910000000     0.0377907  
H399     H      0.964200000000     0.121330000000     0.965430000000     0.0361065  
H400     H      0.989800000000     0.370630000000     0.076760000000     0.0345013  
H401     H      0.814320000000     0.976810000000     0.049010000000     0.04159    
H402     H      0.684830000000     0.032430000000     0.039950000000     0.0330983  
H403     H      0.688860000000     0.925410000000     0.002860000000     0.0374442  
H404     H      0.894150000000     0.045090000000     0.959120000000     0.036044   
H405     H      0.631670000000     0.999960000000     0.063800000000     0.0368797  
H406     H      0.849370000000     0.942240000000     0.971500000000     0.0333703  
H407     H      0.841920000000     0.052050000000     0.999290000000     0.0329923  
H408     H      0.918950000000     0.946560000000     0.976650000000     0.0427996  
H409     H      0.620630000000     0.927070000000     0.993730000000     0.0237918  
H410     H      0.749450000000     0.968940000000     0.064530000000     0.0438658  
H411     H      0.616990000000     0.032640000000     0.031870000000     0.0337144  
H412     H      0.783700000000     0.007470000000     0.941720000000     0.0437577  
H413     H      0.670510000000     0.024350000000     0.994350000000     0.0362853  
H414     H      0.911460000000     0.054460000000     0.003430000000     0.0411533  
H415     H      0.865800000000     0.955770000000     0.015090000000     0.0383064  
H416     H      0.861350000000     0.021720000000     0.031750000000     0.0387967  
H417     H      0.718980000000     0.000240000000     0.957320000000     0.0401081  
H418     H      0.672890000000     0.958670000000     0.971820000000     0.0386531  
H419     H      0.899260000000     0.973150000000     0.941180000000     0.0380807  
H420     H      0.657960000000     0.938770000000     0.079060000000     0.0359191  
H421     H      0.244450000000     0.040430000000     0.023720000000     0.0402358  
H422     H      0.366710000000     0.000240000000     0.082990000000     0.0319099  
H423     H      0.358400000000     0.973680000000     0.972680000000     0.037624   
H424     H      0.143360000000     0.967980000000     0.083660000000     0.0434094  
H425     H      0.423340000000     0.018940000000     0.053270000000     0.0371857  
H426     H      0.195800000000     0.972380000000     0.983210000000     0.0335234  
H427     H      0.202930000000     0.995210000000     0.094680000000     0.0339752  
H428     H      0.128970000000     0.992400000000     0.984260000000     0.0382753  
H429     H      0.424480000000     0.955360000000     0.973190000000     0.0266261  
H430     H      0.311410000000     0.042820000000     0.018910000000     0.0429568  
H431     H      0.432540000000     0.982010000000     0.082440000000     0.032371   
H432     H      0.250480000000     0.928160000000     0.048330000000     0.0440149  
H433     H      0.373690000000     0.954290000000     0.070110000000     0.035651   
H434     H      0.136000000000     0.014540000000     0.093760000000     0.0422161  
H435     H      0.188890000000     0.017960000000     0.997330000000     0.0361517  
H436     H      0.193160000000     0.031720000000     0.064590000000     0.0362939  
H437     H      0.317490000000     0.930620000000     0.043750000000     0.0403964  
H438     H      0.369120000000     0.938650000000     0.003960000000     0.0387292  
H439     H      0.138600000000     0.953220000000     0.010830000000     0.0400955  
H440     H      0.400350000000     0.043410000000     0.993170000000     0.0345004  
H441     H      0.995390000000     0.009860000000     0.768820000000     0.0413507  
H442     H      0.077000000000     0.048620000000     0.875710000000     0.0333549  
H443     H      0.965950000000     0.029940000000     0.904540000000     0.0397368  
H444     H      0.995400000000     0.115910000000     0.683390000000     0.0388085  
H445     H      0.078020000000     0.009180000000     0.927500000000     0.0381677  
H446     H      0.921220000000     0.066340000000     0.754270000000     0.0332526  
H447     H      0.032770000000     0.083760000000     0.726900000000     0.0351058  
H448     H      0.906170000000     0.061110000000     0.687640000000     0.0330014  
H449     H      0.984780000000     0.035670000000     0.970670000000     0.0253027  
H450     H      0.013770000000     0.993820000000     0.830070000000     0.0438944  
H451     H      0.093310000000     0.052530000000     0.942160000000     0.0344536  
H452     H      0.984190000000     0.119790000000     0.801110000000     0.0435345  
H453     H      0.052760000000     0.082860000000     0.900100000000     0.0351351  
H454     H      0.015650000000     0.078180000000     0.660750000000     0.0423153  
H455     H      0.945310000000     0.031060000000     0.731270000000     0.0381765  
H456     H      0.012450000000     0.041550000000     0.714770000000     0.0417072  
H457     H      0.002490000000     0.103700000000     0.862410000000     0.0401802  
H458     H      0.986760000000     0.071570000000     0.917150000000     0.0393675  
H459     H      0.922420000000     0.104530000000     0.701330000000     0.0372397  
H460     H      0.021360000000     0.966150000000     0.919260000000     0.0387939  
H461     H      0.104600000000     0.999850000000     0.363000000000     0.0393326  
H462     H      0.080640000000     0.920960000000     0.249580000000     0.0338914  
H463     H      0.044590000000     0.028540000000     0.240530000000     0.0405886  
H464     H      0.028760000000     0.944880000000     0.463100000000     0.0482702  
H465     H      0.104080000000     0.943500000000     0.192870000000     0.0385684  
H466     H      0.024090000000     0.036490000000     0.397740000000     0.0336413  
H467     H      0.063970000000     0.930570000000     0.409610000000     0.0331618  
H468     H      0.037170000000     0.047430000000     0.464070000000     0.0311343  
H469     H      0.031250000000     0.016940000000     0.173950000000     0.0171581  
H470     H      0.113440000000     0.996540000000     0.297810000000     0.0434193  
H471     H      0.067960000000     0.912280000000     0.182850000000     0.0358994  
H472     H      0.994110000000     0.961350000000     0.350620000000     0.0444388  
H473     H      0.033840000000     0.929100000000     0.236390000000     0.0366381  
H474     H      0.076520000000     0.943560000000     0.475650000000     0.0480802  
H475     H      0.071370000000     0.030870000000     0.410410000000     0.0371616  
H476     H      0.095560000000     0.966690000000     0.417580000000     0.0345646  
H477     H      0.002880000000     0.958250000000     0.285430000000     0.0406847  
H478     H      0.012500000000     0.993400000000     0.231120000000     0.0390831  
H479     H      0.002550000000     0.014140000000     0.455320000000     0.0358872  
H480     H      0.121280000000     0.010840000000     0.205260000000     0.0352526  
N1       N      0.515750000000     0.477260000000     0.860750000000    -0.185478   
N2       N      0.511000000000     0.490220000000     0.786180000000    -0.111393   
N3       N      0.505440000000     0.554090000000     0.647340000000    -0.113683   
N4       N      0.507670000000     0.563720000000     0.572270000000    -0.181396   
N5       N      0.528340000000     0.467950000000     0.070180000000    -0.18646    
N6       N      0.531560000000     0.473380000000     0.145900000000    -0.111406   
N7       N      0.529190000000     0.524300000000     0.290180000000    -0.113214   
N8       N      0.523670000000     0.533090000000     0.365230000000    -0.180651   
N9       N      0.518650000000     0.938830000000     0.536890000000    -0.185678   
N10      N      0.519750000000     0.863950000000     0.527530000000    -0.111608   
N11      N      0.519590000000     0.725050000000     0.464910000000    -0.113664   
N12      N      0.517730000000     0.650350000000     0.455340000000    -0.181023   
N13      N      0.516340000000     0.144800000000     0.504520000000    -0.186044   
N14      N      0.514610000000     0.219080000000     0.492040000000    -0.111363   
N15      N      0.507920000000     0.370690000000     0.503190000000    -0.113416   
N16      N      0.509070000000     0.444830000000     0.490120000000    -0.18252    
N17      N      0.529260000000     0.576350000000     0.964680000000    -0.188189   
N18      N      0.532280000000     0.651340000000     0.969150000000    -0.111431   
N19      N      0.531960000000     0.795290000000     0.017680000000    -0.113397   
N20      N      0.527970000000     0.870140000000     0.022380000000    -0.181652   
N21      N      0.518080000000     0.077930000000     0.027010000000    -0.188055   
N22      N      0.514560000000     0.152810000000     0.020060000000    -0.111447   
N23      N      0.513430000000     0.294030000000     0.963820000000    -0.113634   
N24      N      0.517380000000     0.368740000000     0.956790000000    -0.18261    
N25      N      0.518830000000     0.973700000000     0.916330000000    -0.186804   
N26      N      0.513500000000     0.984660000000     0.841540000000    -0.111524   
N27      N      0.507460000000     0.047230000000     0.702350000000    -0.113639   
N28      N      0.510510000000     0.056570000000     0.627350000000    -0.182955   
N29      N      0.533480000000     0.968190000000     0.125190000000    -0.186312   
N30      N      0.536900000000     0.972750000000     0.200680000000    -0.111445   
N31      N      0.530530000000     0.021720000000     0.345150000000    -0.113256   
N32      N      0.525140000000     0.029140000000     0.420110000000    -0.182348   
N33      N      0.603650000000     0.542650000000     0.477890000000    -0.238678   
N34      N      0.681330000000     0.540140000000     0.477150000000    -0.113628   
N35      N      0.822970000000     0.512700000000     0.535270000000    -0.115408   
N36      N      0.897560000000     0.503910000000     0.544870000000    -0.100657   
N37      N      0.119200000000     0.531920000000     0.456300000000    -0.102894   
N38      N      0.194010000000     0.544470000000     0.450690000000    -0.11286    
N39      N      0.348680000000     0.536590000000     0.470930000000    -0.116683   
N40      N      0.424460000000     0.550770000000     0.459830000000    -0.227637   
N41      N      0.912330000000     0.456990000000     0.907790000000    -0.108119   
N42      N      0.840570000000     0.460810000000     0.931870000000    -0.112927   
N43      N      0.685240000000     0.450480000000     0.939880000000    -0.116679   
N44      N      0.613120000000     0.469170000000     0.961440000000    -0.2297     
N45      N      0.141850000000     0.530630000000     0.043630000000    -0.10442    
N46      N      0.211360000000     0.513420000000     0.020060000000    -0.113095   
N47      N      0.364620000000     0.492250000000     0.003670000000    -0.117322   
N48      N      0.432830000000     0.476790000000     0.970020000000    -0.228195   
N49      N      0.979490000000     0.504210000000     0.603240000000    -0.186862   
N50      N      0.970170000000     0.511300000000     0.677940000000    -0.111603   
N51      N      0.995870000000     0.510810000000     0.828270000000    -0.113139   
N52      N      0.994040000000     0.503340000000     0.903150000000    -0.179158   
N53      N      0.042960000000     0.484650000000     0.105320000000    -0.185805   
N54      N      0.057300000000     0.477860000000     0.179350000000    -0.111621   
N55      N      0.044190000000     0.476630000000     0.331210000000    -0.112841   
N56      N      0.045120000000     0.481770000000     0.405580000000    -0.181009   
N57      N      0.046970000000     0.876230000000     0.499860000000    -0.109047   
N58      N      0.054330000000     0.802450000000     0.495240000000    -0.112763   
N59      N      0.025240000000     0.653250000000     0.506680000000    -0.116638   
N60      N      0.033890000000     0.578130000000     0.499270000000    -0.227664   
N61      N      0.969710000000     0.120370000000     0.596200000000    -0.102005   
N62      N      0.973410000000     0.187950000000     0.565810000000    -0.112741   
N63      N      0.007250000000     0.333720000000     0.537690000000    -0.116802   
N64      N      0.999840000000     0.404720000000     0.510850000000    -0.226351   
N65      N      0.608340000000     0.043020000000     0.529110000000    -0.234446   
N66      N      0.683360000000     0.062950000000     0.536490000000    -0.114159   
N67      N      0.838060000000     0.045430000000     0.547800000000    -0.114797   
N68      N      0.911720000000     0.058140000000     0.560920000000    -0.0955072  
N69      N      0.427140000000     0.039800000000     0.519140000000    -0.234966   
N70      N      0.352110000000     0.055720000000     0.505830000000    -0.11421    
N71      N      0.197050000000     0.038300000000     0.502520000000    -0.114533   
N72      N      0.123420000000     0.047950000000     0.486780000000    -0.101448   
N73      N      0.015740000000     0.582320000000     0.013770000000    -0.231987   
N74      N      0.008750000000     0.656670000000     0.998210000000    -0.114436   
N75      N      0.019670000000     0.808020000000     0.012050000000    -0.114933   
N76      N      0.013240000000     0.880680000000     0.998310000000    -0.0986438  
N77      N      0.007580000000     0.405310000000     0.997550000000    -0.233092   
N78      N      0.005990000000     0.330700000000     0.013420000000    -0.114421   
N79      N      0.004050000000     0.180130000000     0.989980000000    -0.115292   
N80      N      0.005240000000     0.106920000000     0.001810000000    -0.0959261  
N81      N      0.614130000000     0.979400000000     0.013290000000    -0.236677   
N82      N      0.691550000000     0.978830000000     0.022320000000    -0.113873   
N83      N      0.841480000000     0.997340000000     0.983620000000    -0.115338   
N84      N      0.917220000000     0.001610000000     0.986140000000    -0.0999807  
N85      N      0.433840000000     0.969300000000     0.027220000000    -0.233631   
N86      N      0.358640000000     0.989640000000     0.027520000000    -0.114579   
N87      N      0.203170000000     0.981340000000     0.039230000000    -0.115084   
N88      N      0.129680000000     0.000230000000     0.039830000000    -0.0993527  
N89      N      0.040410000000     0.038280000000     0.958240000000    -0.106519   
N90      N      0.020900000000     0.036880000000     0.886250000000    -0.113312   
N91      N      0.977760000000     0.076790000000     0.744690000000    -0.114866   
N92      N      0.959790000000     0.073550000000     0.672350000000    -0.100754   
N93      N      0.054720000000     0.966140000000     0.175410000000    -0.117062   
N94      N      0.065260000000     0.975840000000     0.248610000000    -0.112736   
N95      N      0.042150000000     0.982420000000     0.399790000000    -0.115216   
N96      N      0.053220000000     0.994480000000     0.472470000000    -0.107065   
O1       O      0.052420000000     0.030630000000     0.099550000000    -0.371913   
O2       O      0.974200000000     0.953810000000     0.099680000000    -0.372596   
O3       O      0.052160000000     0.954490000000     0.090670000000    -0.368759   
O4       O      0.974520000000     0.029840000000     0.108530000000    -0.37417    
O5       O      0.967460000000     0.036740000000     0.049160000000    -0.371281   
O6       O      0.044990000000     0.961340000000     0.031300000000    -0.367148   
O7       O      0.967080000000     0.960660000000     0.040310000000    -0.369062   
O8       O      0.045300000000     0.037470000000     0.040190000000    -0.363224   
O9       O      0.086790000000     0.976330000000     0.545510000000    -0.370296   
O10      O      0.991040000000     0.021390000000     0.576820000000    -0.372066   
O11      O      0.066470000000     0.041930000000     0.580000000000    -0.377722   
O12      O      0.011200000000     0.955880000000     0.542290000000    -0.371113   
O13      O      0.016390000000     0.929380000000     0.596030000000    -0.374713   
O14      O      0.071890000000     0.015360000000     0.633690000000    -0.37459    
O15      O      0.996340000000     0.994960000000     0.630590000000    -0.375229   
O16      O      0.091990000000     0.949740000000     0.599180000000    -0.373442   
O17      O      0.959290000000     0.465520000000     0.015180000000    -0.464185   
O18      O      0.060210000000     0.463230000000     0.989350000000    -0.459017   
O19      O      0.025370000000     0.459930000000     0.051960000000    -0.484077   
O20      O      0.999960000000     0.469100000000     0.953500000000    -0.478365   
O21      O      0.000870000000     0.527850000000     0.958750000000    -0.484831   
O22      O      0.026520000000     0.518640000000     0.057090000000    -0.479839   
O23      O      0.062700000000     0.522000000000     0.995640000000    -0.454091   
O24      O      0.961800000000     0.524180000000     0.021610000000    -0.461486   
O25      O      0.060420000000     0.454540000000     0.524340000000    -0.460299   
O26      O      0.963230000000     0.469020000000     0.489470000000    -0.453625   
O27      O      0.028610000000     0.457210000000     0.459290000000    -0.481321   
O28      O      0.995560000000     0.469810000000     0.555280000000    -0.486428   
O29      O      0.001490000000     0.528090000000     0.551070000000    -0.486028   
O30      O      0.035560000000     0.515590000000     0.455520000000    -0.480783   
O31      O      0.972240000000     0.527620000000     0.486770000000    -0.453626   
O32      O      0.069240000000     0.513100000000     0.522100000000    -0.457746   
O33      O      0.499780000000     0.969890000000     0.073570000000    -0.483414   
O34      O      0.492310000000     0.972680000000     0.971840000000    -0.485746   
O35      O      0.494900000000     0.921860000000     0.022560000000    -0.482018   
O36      O      0.490200000000     0.023390000000     0.025710000000    -0.491391   
O37      O      0.550190000000     0.026030000000     0.021180000000    -0.492393   
O38      O      0.555060000000     0.924910000000     0.019060000000    -0.485141   
O39      O      0.552320000000     0.975930000000     0.968030000000    -0.489138   
O40      O      0.559910000000     0.974110000000     0.069970000000    -0.483969   
O41      O      0.491310000000     0.033610000000     0.471450000000    -0.483837   
O42      O      0.484080000000     0.048140000000     0.572460000000    -0.489127   
O43      O      0.487060000000     0.091650000000     0.513300000000    -0.486356   
O44      O      0.488040000000     0.991320000000     0.528590000000    -0.483907   
O45      O      0.548310000000     0.992470000000     0.532230000000    -0.481223   
O46      O      0.547350000000     0.093360000000     0.517590000000    -0.482528   
O47      O      0.544060000000     0.050360000000     0.576090000000    -0.488438   
O48      O      0.551330000000     0.036140000000     0.475240000000    -0.487327   
O49      O      0.495580000000     0.472080000000     0.018150000000    -0.492313   
O50      O      0.489100000000     0.476020000000     0.916190000000    -0.479323   
O51      O      0.490600000000     0.423320000000     0.963710000000    -0.488233   
O52      O      0.497000000000     0.524370000000     0.967510000000    -0.492066   
O53      O      0.557030000000     0.521710000000     0.964530000000    -0.486253   
O54      O      0.550690000000     0.420230000000     0.959890000000    -0.48756    
O55      O      0.549300000000     0.473590000000     0.912500000000    -0.480108   
O56      O      0.555660000000     0.468810000000     0.014870000000    -0.481645   
O57      O      0.480860000000     0.554370000000     0.517540000000    -0.477567   
O58      O      0.489550000000     0.540090000000     0.416250000000    -0.480892   
O59      O      0.480760000000     0.497280000000     0.475390000000    -0.484155   
O60      O      0.485770000000     0.598150000000     0.460750000000    -0.480506   
O61      O      0.546000000000     0.596510000000     0.463240000000    -0.48166    
O62      O      0.540690000000     0.496580000000     0.481000000000    -0.489948   
O63      O      0.549720000000     0.538540000000     0.420740000000    -0.486091   
O64      O      0.541060000000     0.556160000000     0.521090000000    -0.483084   
S1       S      0.468900000000     0.430140000000     0.832660000000    -0.0448843  
S2       S      0.573620000000     0.417230000000     0.094100000000    -0.0487522  
S3       S      0.474150000000     0.909560000000     0.585710000000    -0.0479673  
S4       S      0.476400000000     0.156910000000     0.445710000000    -0.0453896  
S5       S      0.483270000000     0.603180000000     0.915860000000    -0.0488933  
S6       S      0.564200000000     0.106610000000     0.074670000000    -0.0505636  
S7       S      0.475710000000     0.922760000000     0.889180000000    -0.0479119  
S8       S      0.584420000000     0.922270000000     0.148030000000    -0.0450613  
S9       S      0.628370000000     0.595990000000     0.435510000000    -0.0446172  
S10      S      0.126730000000     0.601520000000     0.445360000000    -0.0524288  
S11      S      0.901510000000     0.523500000000     0.930030000000    -0.0380559  
S12      S      0.146810000000     0.553550000000     0.976280000000    -0.0424961  
S13      S      0.922340000000     0.464190000000     0.623690000000    -0.0480538  
S14      S      0.099120000000     0.527410000000     0.122220000000    -0.0366299  
S15      S      0.117200000000     0.862090000000     0.511190000000    -0.0488902  
S16      S      0.901190000000     0.142700000000     0.587440000000    -0.0465495  
S17      S      0.614350000000     0.096450000000     0.577700000000    -0.0433287  
S18      S      0.420040000000     0.072810000000     0.454840000000    -0.0390579  
S19      S      0.951120000000     0.594990000000     0.980430000000    -0.0390716  
S20      S      0.968380000000     0.394320000000     0.058230000000    -0.0431237  
S21      S      0.632610000000     0.924090000000     0.056340000000    -0.0384642  
S22      S      0.421420000000     0.018760000000     0.975540000000    -0.042833   
S23      S      0.002290000000     0.978800000000     0.948230000000    -0.048398   
S24      S      0.095210000000     0.024530000000     0.182710000000    -0.0380992  


