data_structure

_audit_creation_method RASPA-1.0
_audit_creation_date 2023-5-25
_audit_author_name 'Poobodin Mano'

_cell_length_a    38.5824
_cell_length_b    38.6142
_cell_length_c    38.4261
_cell_angle_alpha 90
_cell_angle_beta  90
_cell_angle_gamma 90
_cell_volume      57248.3

_symmetry_cell_setting          triclinic
_symmetry_space_group_name_Hall 'P 1'
_symmetry_space_group_name_H-M  'P 1'
_symmetry_Int_Tables_number     1

_symmetry_equiv_pos_as_xyz 'x,y,z'

loop_
_atom_site_label
_atom_site_type_symbol
_atom_site_fract_x
_atom_site_fract_y
_atom_site_fract_z
_atom_site_charge
C1       C      0.930300000000     0.976970000000     0.494870000000     0.400906   
C2       C      0.067910000000     0.965260000000     0.498500000000     0.399      
C3       C      0.003970000000     0.039710000000     0.496220000000     0.399057   
C4       C      0.992860000000     0.902390000000     0.496800000000     0.400256   
C5       C      0.006570000000     0.402690000000     0.497860000000     0.402108   
C6       C      0.002360000000     0.540310000000     0.501590000000     0.402607   
C7       C      0.000330000000     0.472590000000     0.429570000000     0.401025   
C8       C      0.008390000000     0.469010000000     0.567950000000     0.401059   
C9       C      0.566760000000     0.984810000000     0.494470000000     0.397959   
C10      C      0.429060000000     0.988630000000     0.484000000000     0.401052   
C11      C      0.503540000000     0.990280000000     0.420620000000     0.402039   
C12      C      0.493570000000     0.983330000000     0.558590000000     0.399367   
C13      C      0.480470000000     0.078560000000     0.981450000000     0.39946    
C14      C      0.483140000000     0.941770000000     0.000500000000     0.400497   
C15      C      0.480260000000     0.001910000000     0.922080000000     0.400997   
C16      C      0.482970000000     0.019360000000     0.059440000000     0.399781   
C17      C      0.992880000000     0.496580000000     0.065340000000     0.398663   
C18      C      0.977250000000     0.499340000000     0.927530000000     0.398668   
C19      C      0.053250000000     0.496780000000     0.987890000000     0.402133   
C20      C      0.916170000000     0.499390000000     0.003490000000     0.39866    
C21      C      0.487950000000     0.441330000000     0.986370000000     0.397531   
C22      C      0.481110000000     0.578970000000     0.995180000000     0.396562   
C23      C      0.415790000000     0.507440000000     0.988910000000     0.399      
C24      C      0.553490000000     0.513890000000     0.992970000000     0.401309   
C25      C      0.645590000000     0.501420000000     0.968190000000    -0.0318052  
C26      C      0.822730000000     0.470460000000     0.003120000000    -0.0295059  
C27      C      0.863370000000     0.534180000000     0.008700000000    -0.0058167  
C28      C      0.861160000000     0.469300000000     0.993280000000    -0.00747938 
C29      C      0.755540000000     0.532150000000     0.975180000000    -0.0543295  
C30      C      0.714310000000     0.491970000000     0.019260000000    -0.0554454  
C31      C      0.771330000000     0.507870000000     0.997140000000     0.0609778  
C32      C      0.825400000000     0.530710000000     0.019270000000    -0.0300859  
C33      C      0.698660000000     0.516990000000     0.997610000000     0.0607546  
C34      C      0.642970000000     0.517440000000     0.029040000000    -0.0564378  
C35      C      0.719720000000     0.536930000000     0.975690000000    -0.0537274  
C36      C      0.605780000000     0.531280000000     0.025650000000     0.0951092  
C37      C      0.608940000000     0.514810000000     0.961360000000    -0.00145558 
C38      C      0.750370000000     0.488200000000     0.019800000000    -0.0558509  
C39      C      0.144840000000     0.469660000000     0.996020000000    -0.0318885  
C40      C      0.325650000000     0.510910000000     0.953640000000    -0.0298126  
C41      C      0.360660000000     0.498830000000     0.019870000000    -0.00630634 
C42      C      0.362410000000     0.524670000000     0.958650000000    -0.00738941 
C43      C      0.255440000000     0.482140000000     0.960200000000    -0.0562251  
C44      C      0.212960000000     0.518950000000     0.006130000000    -0.0559721  
C45      C      0.270530000000     0.504640000000     0.984800000000     0.0609561  
C46      C      0.324280000000     0.485610000000     0.011250000000    -0.0299703  
C47      C      0.197830000000     0.498870000000     0.979550000000     0.060826   
C48      C      0.142590000000     0.530080000000     0.978710000000    -0.0568741  
C49      C      0.219420000000     0.479920000000     0.957250000000    -0.0536202  
C50      C      0.105160000000     0.526830000000     0.965750000000     0.0951534  
C51      C      0.107600000000     0.463410000000     0.983740000000    -0.00143263 
C52      C      0.248940000000     0.522280000000     0.008160000000    -0.0540479  
C53      C      0.509760000000     0.849990000000     0.991410000000    -0.0319946  
C54      C      0.474460000000     0.667730000000     0.033580000000    -0.029869   
C55      C      0.484070000000     0.635440000000     0.965610000000    -0.0068254  
C56      C      0.462230000000     0.630410000000     0.028090000000    -0.00789033 
C57      C      0.500190000000     0.739420000000     0.027550000000    -0.0561508  
C58      C      0.460080000000     0.781740000000     0.984330000000    -0.0560221  
C59      C      0.476710000000     0.724150000000     0.003980000000     0.0608319  
C60      C      0.496180000000     0.672090000000     0.974670000000    -0.0302631  
C61      C      0.481570000000     0.797010000000     0.009720000000     0.0606725  
C62      C      0.450420000000     0.852340000000     0.012130000000    -0.056379   
C63      C      0.502000000000     0.775470000000     0.030740000000    -0.0535823  
C64      C      0.454390000000     0.889890000000     0.024640000000     0.0947585  
C65      C      0.516690000000     0.887350000000     0.003030000000    -0.00152897 
C66      C      0.457260000000     0.745720000000     0.982070000000    -0.0541915  
C67      C      0.508830000000     0.170200000000     0.986640000000    -0.031926   
C68      C      0.490240000000     0.348170000000     0.013150000000    -0.0299148  
C69      C      0.485890000000     0.389230000000     0.949520000000    -0.00652805 
C70      C      0.503690000000     0.385510000000     0.013370000000    -0.00759444 
C71      C      0.507610000000     0.277810000000     0.950710000000    -0.0543761  
C72      C      0.462490000000     0.241710000000     0.994560000000    -0.0556711  
C73      C      0.488780000000     0.296130000000     0.975880000000     0.0606995  
C74      C      0.472160000000     0.352240000000     0.953000000000    -0.0301922  
C75      C      0.481420000000     0.223490000000     0.969050000000     0.0605894  
C76      C      0.447510000000     0.169300000000     0.973640000000    -0.05639    
C77      C      0.503690000000     0.242060000000     0.947080000000    -0.0536392  
C78      C      0.448610000000     0.130970000000     0.962380000000     0.0943604  
C79      C      0.513510000000     0.132650000000     0.975180000000    -0.00171069 
C80      C      0.465360000000     0.277790000000     0.997250000000    -0.0558428  
C81      C      0.453240000000     0.975790000000     0.832660000000    -0.0319503  
C82      C      0.494140000000     0.013340000000     0.650470000000    -0.0297491  
C83      C      0.485340000000     0.948820000000     0.611980000000    -0.00635318 
C84      C      0.509720000000     0.010120000000     0.614180000000    -0.00726563 
C85      C      0.460100000000     0.002550000000     0.718060000000    -0.0563872  
C86      C      0.502410000000     0.964280000000     0.762920000000    -0.0558164  
C87      C      0.485900000000     0.980740000000     0.704170000000     0.0611661  
C88      C      0.470500000000     0.955190000000     0.648460000000    -0.0303086  
C89      C      0.479330000000     0.989020000000     0.776740000000     0.060772   
C90      C      0.512020000000     0.997700000000     0.830780000000    -0.0566932  
C91      C      0.457430000000     0.007100000000     0.754020000000    -0.0533142  
C92      C      0.508770000000     0.015200000000     0.866420000000     0.0950362  
C93      C      0.446720000000     0.992050000000     0.868450000000    -0.00140422 
C94      C      0.506050000000     0.960780000000     0.726910000000    -0.0543286  
C95      C      0.507190000000     0.030730000000     0.333730000000    -0.0313266  
C96      C      0.460360000000     0.004620000000     0.151060000000    -0.0304184  
C97      C      0.514690000000     0.039360000000     0.111500000000    -0.00711681 
C98      C      0.451890000000     0.020600000000     0.115590000000    -0.00655558 
C99      C      0.515050000000     0.990160000000     0.215870000000    -0.0563422  
C100     C      0.476180000000     0.027940000000     0.264150000000    -0.0560625  
C101     C      0.492190000000     0.016130000000     0.204100000000     0.0611097  
C102     C      0.520470000000     0.023220000000     0.147300000000    -0.0300134  
C103     C      0.501380000000     0.004270000000     0.275990000000     0.0609339  
C104     C      0.488150000000     0.971030000000     0.327980000000    -0.0572336  
C105     C      0.520030000000     0.984920000000     0.251480000000    -0.0535694  
C106     C      0.503850000000     0.961010000000     0.363390000000     0.0966032  
C107     C      0.522720000000     0.023850000000     0.369580000000    -0.00209868 
C108     C      0.472280000000     0.034240000000     0.228570000000    -0.0542482  
C109     C      0.975620000000     0.464650000000     0.657450000000    -0.0310374  
C110     C      0.998020000000     0.523170000000     0.837480000000    -0.030421   
C111     C      0.957940000000     0.470190000000     0.873670000000    -0.00723058 
C112     C      0.980230000000     0.531820000000     0.872130000000    -0.00687814 
C113     C      0.015630000000     0.469720000000     0.773500000000    -0.0562394  
C114     C      0.978830000000     0.505540000000     0.722170000000    -0.0561495  
C115     C      0.988640000000     0.492350000000     0.783270000000     0.060935   
C116     C      0.976130000000     0.464060000000     0.838930000000    -0.0299811  
C117     C      0.003160000000     0.480130000000     0.712360000000     0.0608138  
C118     C      0.031960000000     0.493020000000     0.657500000000    -0.0571138  
C119     C      0.022250000000     0.463250000000     0.738320000000    -0.0536047  
C120     C      0.041970000000     0.476290000000     0.622440000000     0.0964363  
C121     C      0.982900000000     0.447340000000     0.622560000000    -0.00216542 
C122     C      0.971240000000     0.511000000000     0.757320000000    -0.0541488  
C123     C      0.029950000000     0.473800000000     0.337620000000    -0.0311335  
C124     C      0.982790000000     0.520120000000     0.158430000000    -0.0303631  
C125     C      0.013080000000     0.464520000000     0.116950000000    -0.00741629 
C126     C      0.995410000000     0.527790000000     0.121370000000    -0.00655686 
C127     C      0.974600000000     0.467130000000     0.225860000000    -0.0562047  
C128     C      0.018660000000     0.505270000000     0.269100000000    -0.055935   
C129     C      0.999460000000     0.489370000000     0.210910000000     0.0607703  
C130     C      0.000230000000     0.459910000000     0.154260000000    -0.0298826  
C131     C      0.996170000000     0.480500000000     0.283850000000     0.0606065  
C132     C      0.970220000000     0.493130000000     0.340220000000    -0.057095   
C133     C      0.973570000000     0.462300000000     0.261900000000    -0.0534551  
C134     C      0.964610000000     0.476510000000     0.376220000000     0.0964196  
C135     C      0.027820000000     0.457450000000     0.373750000000    -0.00262004 
C136     C      0.020690000000     0.509030000000     0.232970000000    -0.054126   
C137     C      0.338030000000     0.012270000000     0.502370000000    -0.0317768  
C138     C      0.157560000000     0.962600000000     0.465100000000    -0.029888   
C139     C      0.122480000000     0.968200000000     0.532080000000    -0.0066985  
C140     C      0.121920000000     0.946080000000     0.469940000000    -0.00733005 
C141     C      0.224580000000     0.998360000000     0.472990000000    -0.0563016  
C142     C      0.272260000000     0.959650000000     0.511580000000    -0.0559316  
C143     C      0.212580000000     0.972040000000     0.495400000000     0.0608427  
C144     C      0.158030000000     0.984310000000     0.524460000000    -0.0302745  
C145     C      0.284340000000     0.983520000000     0.486610000000     0.0605441  
C146     C      0.340000000000     0.954920000000     0.476460000000    -0.0564649  
C147     C      0.260150000000     0.003470000000     0.468230000000    -0.0534838  
C148     C      0.376030000000     0.961250000000     0.460910000000     0.0948163  
C149     C      0.374070000000     0.021270000000     0.488030000000    -0.00157046 
C150     C      0.236740000000     0.953580000000     0.515340000000    -0.0542802  
C151     C      0.838180000000     0.968390000000     0.521970000000    -0.0317848  
C152     C      0.657720000000     0.950590000000     0.497300000000    -0.0300594  
C153     C      0.621620000000     0.017050000000     0.496160000000    -0.00634421 
C154     C      0.619770000000     0.952130000000     0.509100000000    -0.00768097 
C155     C      0.731120000000     0.006590000000     0.522100000000    -0.0542573  
C156     C      0.766410000000     0.965040000000     0.474240000000    -0.0555277  
C157     C      0.712200000000     0.983990000000     0.500830000000     0.0608632  
C158     C      0.658710000000     0.011670000000     0.483470000000    -0.0301598  
C159     C      0.785190000000     0.988310000000     0.495340000000     0.0608028  
C160     C      0.839460000000     0.984570000000     0.461250000000    -0.0563452  
C161     C      0.767050000000     0.009040000000     0.519100000000    -0.0536665  
C162     C      0.877790000000     0.995680000000     0.463060000000     0.0947569  
C163     C      0.875720000000     0.979450000000     0.527610000000    -0.0016053  
C164     C      0.730180000000     0.963650000000     0.476230000000    -0.0557923  
C165     C      0.965720000000     0.629000000000     0.509480000000    -0.0313407  
C166     C      0.003960000000     0.810730000000     0.470770000000    -0.0303641  
C167     C      0.973710000000     0.850070000000     0.528030000000    -0.00717766 
C168     C      0.990770000000     0.847510000000     0.464140000000    -0.00620236 
C169     C      0.014860000000     0.742870000000     0.520830000000    -0.0564828  
C170     C      0.970870000000     0.699930000000     0.482290000000    -0.0561555  
C171     C      0.988480000000     0.757670000000     0.500290000000     0.0612361  
C172     C      0.986980000000     0.813000000000     0.531530000000    -0.0299413  
C173     C      0.995300000000     0.685100000000     0.505120000000     0.0610907  
C174     C      0.023930000000     0.632510000000     0.485980000000    -0.057345   
C175     C      0.017650000000     0.706930000000     0.523690000000    -0.0536506  
C176     C      0.033350000000     0.596190000000     0.499270000000     0.0968478  
C177     C      0.971520000000     0.592090000000     0.522510000000    -0.00224735 
C178     C      0.967120000000     0.735870000000     0.480540000000    -0.0543247  
C179     C      0.035510000000     0.312050000000     0.482250000000    -0.0319615  
C180     C      0.002550000000     0.130930000000     0.528620000000    -0.0297527  
C181     C      0.011060000000     0.093710000000     0.463070000000    -0.00606855 
C182     C      0.989030000000     0.093920000000     0.525870000000    -0.00742129 
C183     C      0.029760000000     0.201040000000     0.517680000000    -0.0562796  
C184     C      0.987770000000     0.241510000000     0.474480000000    -0.0559538  
C185     C      0.005780000000     0.184860000000     0.495290000000     0.0612407  
C186     C      0.024160000000     0.130560000000     0.469510000000    -0.0303753  
C187     C      0.009250000000     0.257670000000     0.499300000000     0.0610987  
C188     C      0.975710000000     0.311580000000     0.501440000000    -0.0567493  
C189     C      0.030850000000     0.237110000000     0.520090000000    -0.0534964  
C190     C      0.977830000000     0.348630000000     0.515540000000     0.0953249  
C191     C      0.040970000000     0.349080000000     0.495390000000    -0.00117654 
C192     C      0.985630000000     0.205440000000     0.473100000000    -0.0541623  
Cu1      Cu     0.998070000000     0.971220000000     0.528640000000     0.845292   
Cu2      Cu     0.000110000000     0.970790000000     0.464440000000     0.83686    
Cu3      Cu     0.972520000000     0.470440000000     0.500830000000     0.843183   
Cu4      Cu     0.036320000000     0.472570000000     0.496790000000     0.836913   
Cu5      Cu     0.496920000000     0.954790000000     0.487850000000     0.835671   
Cu6      Cu     0.498830000000     0.018600000000     0.491230000000     0.845165   
Cu7      Cu     0.513610000000     0.010870000000     0.990100000000     0.844388   
Cu8      Cu     0.449670000000     0.009390000000     0.991550000000     0.835189   
Cu9      Cu     0.984150000000     0.466050000000     0.995890000000     0.84078    
Cu10     Cu     0.985490000000     0.529990000000     0.996990000000     0.840535   
Cu11     Cu     0.483790000000     0.508050000000     0.022880000000     0.835407   
Cu12     Cu     0.485530000000     0.512250000000     0.958920000000     0.841789   
H1       H      0.761550000000     0.469630000000     0.037610000000     0.0396052  
H2       H      0.660640000000     0.503770000000     0.943570000000     0.0343583  
H3       H      0.656570000000     0.531400000000     0.050400000000     0.0415924  
H4       H      0.864780000000     0.548260000000     0.983480000000     0.0401513  
H5       H      0.610680000000     0.540920000000     0.949260000000     0.0406166  
H6       H      0.808630000000     0.450860000000     0.987290000000     0.0336684  
H7       H      0.812980000000     0.556590000000     0.016510000000     0.033728   
H8       H      0.872720000000     0.445280000000     0.004270000000     0.039961   
H9       H      0.591420000000     0.523370000000     0.049510000000     0.0173471  
H10      H      0.698980000000     0.475590000000     0.036100000000     0.0395687  
H11      H      0.596200000000     0.497250000000     0.942300000000     0.0382918  
H12      H      0.771230000000     0.547760000000     0.957850000000     0.04422    
H13      H      0.644730000000     0.473500000000     0.975490000000     0.0380108  
H14      H      0.876970000000     0.550340000000     0.028420000000     0.0379615  
H15      H      0.820100000000     0.463300000000     0.031070000000     0.0350184  
H16      H      0.823390000000     0.522850000000     0.047100000000     0.0372343  
H17      H      0.708160000000     0.556030000000     0.958620000000     0.0447128  
H18      H      0.641610000000     0.489540000000     0.036270000000     0.0410134  
H19      H      0.863270000000     0.467260000000     0.964480000000     0.0380574  
H20      H      0.581100000000     0.578450000000     0.020620000000     0.0890807  
H21      H      0.616250000000     0.579300000000     0.047240000000     0.0790811  
H22      H      0.260140000000     0.538830000000     0.027940000000     0.0435307  
H23      H      0.159460000000     0.444940000000     0.993380000000     0.0340994  
H24      H      0.156110000000     0.550800000000     0.963810000000     0.0422128  
H25      H      0.358360000000     0.522380000000     0.036370000000     0.0387362  
H26      H      0.108310000000     0.451260000000     0.957510000000     0.0407759  
H27      H      0.311770000000     0.528250000000     0.935160000000     0.0342083  
H28      H      0.309380000000     0.483660000000     0.035990000000     0.0333682  
H29      H      0.376850000000     0.521310000000     0.933830000000     0.040696   
H30      H      0.091460000000     0.551230000000     0.972770000000     0.0175533  
H31      H      0.197210000000     0.532750000000     0.024800000000     0.0401908  
H32      H      0.095000000000     0.444820000000     0.001880000000     0.0376871  
H33      H      0.271210000000     0.466940000000     0.942670000000     0.0402549  
H34      H      0.144910000000     0.477210000000     0.024010000000     0.0378269  
H35      H      0.374360000000     0.478730000000     0.035400000000     0.0389207  
H36      H      0.327290000000     0.484610000000     0.941890000000     0.0362339  
H37      H      0.325800000000     0.459250000000     0.999560000000     0.037578   
H38      H      0.208190000000     0.463520000000     0.937360000000     0.0444989  
H39      H      0.141820000000     0.538060000000     0.006530000000     0.0419644  
H40      H      0.360990000000     0.552950000000     0.963940000000     0.0373695  
H41      H      0.079320000000     0.519930000000     0.919250000000     0.0873953  
H42      H      0.114930000000     0.545670000000     0.916250000000     0.0788014  
H43      H      0.439860000000     0.734470000000     0.963060000000     0.0434511  
H44      H      0.534630000000     0.835440000000     0.992710000000     0.0342105  
H45      H      0.430550000000     0.838940000000     0.028280000000     0.0420257  
H46      H      0.459320000000     0.637170000000     0.950870000000     0.0386211  
H47      H      0.530370000000     0.886820000000     0.028500000000     0.0406503  
H48      H      0.457560000000     0.680120000000     0.053480000000     0.0340597  
H49      H      0.495980000000     0.687790000000     0.950370000000     0.0335523  
H50      H      0.467690000000     0.615380000000     0.052150000000     0.0400212  
H51      H      0.429600000000     0.903520000000     0.018900000000     0.0175837  
H52      H      0.444970000000     0.797410000000     0.966630000000     0.0400159  
H53      H      0.534220000000     0.899790000000     0.983750000000     0.0378472  
H54      H      0.516710000000     0.723770000000     0.043930000000     0.0401029  
H55      H      0.500640000000     0.849730000000     0.963900000000     0.0377554  
H56      H      0.503680000000     0.623380000000     0.948190000000     0.0392333  
H57      H      0.501450000000     0.667050000000     0.043790000000     0.0355787  
H58      H      0.523270000000     0.671410000000     0.984680000000     0.0375801  
H59      H      0.519420000000     0.786740000000     0.049710000000     0.0444302  
H60      H      0.440850000000     0.852910000000     0.984810000000     0.0414467  
H61      H      0.433640000000     0.630570000000     0.024430000000     0.0373897  
H62      H      0.463800000000     0.916020000000     0.070510000000     0.087543   
H63      H      0.438300000000     0.880420000000     0.075170000000     0.078699   
H64      H      0.449780000000     0.290940000000     0.016530000000     0.0398065  
H65      H      0.533830000000     0.183940000000     0.982290000000     0.0341785  
H66      H      0.426190000000     0.182840000000     0.959650000000     0.0417622  
H67      H      0.511520000000     0.388440000000     0.936290000000     0.0385492  
H68      H      0.524130000000     0.132320000000     0.948280000000     0.0391316  
H69      H      0.505600000000     0.332790000000     0.032180000000     0.0337369  
H70      H      0.473340000000     0.339820000000     0.926880000000     0.0337034  
H71      H      0.497010000000     0.397510000000     0.038800000000     0.0403926  
H72      H      0.424910000000     0.118170000000     0.972800000000     0.0171677  
H73      H      0.445470000000     0.228360000000     0.012420000000     0.0397862  
H74      H      0.533050000000     0.120420000000     0.992560000000     0.0383803  
H75      H      0.525440000000     0.291410000000     0.933770000000     0.0437937  
H76      H      0.502840000000     0.171320000000     0.014990000000     0.0381325  
H77      H      0.467850000000     0.404070000000     0.932570000000     0.0395932  
H78      H      0.462680000000     0.348320000000     0.021720000000     0.036138   
H79      H      0.444540000000     0.352630000000     0.961470000000     0.0381711  
H80      H      0.518750000000     0.228520000000     0.927560000000     0.0445065  
H81      H      0.441590000000     0.170290000000     0.001990000000     0.0409801  
H82      H      0.532450000000     0.384900000000     0.011550000000     0.0371587  
H83      H      0.449600000000     0.102770000000     0.916730000000     0.0883233  
H84      H      0.424570000000     0.138920000000     0.914850000000     0.0796361  
H85      H      0.525290000000     0.943110000000     0.716630000000     0.0437619  
H86      H      0.428070000000     0.974450000000     0.818560000000     0.0338328  
H87      H      0.531330000000     0.011980000000     0.814710000000     0.0423061  
H88      H      0.509480000000     0.933270000000     0.614410000000     0.0385837  
H89      H      0.431610000000     0.016330000000     0.864930000000     0.0398305  
H90      H      0.510340000000     0.031610000000     0.665880000000     0.0345957  
H91      H      0.469040000000     0.929900000000     0.662280000000     0.0335265  
H92      H      0.507140000000     0.035530000000     0.600810000000     0.0409668  
H93      H      0.533810000000     0.011300000000     0.880310000000     0.0176753  
H94      H      0.518690000000     0.948760000000     0.779680000000     0.0400318  
H95      H      0.430600000000     0.973940000000     0.884120000000     0.0370157  
H96      H      0.443030000000     0.017210000000     0.701280000000     0.0403861  
H97      H      0.463220000000     0.948890000000     0.835740000000     0.0372721  
H98      H      0.466370000000     0.933290000000     0.596740000000     0.0383385  
H99      H      0.467630000000     0.024460000000     0.648000000000     0.0367952  
H100     H      0.443750000000     0.965880000000     0.646450000000     0.037436   
H101     H      0.438790000000     0.025430000000     0.764260000000     0.044372   
H102     H      0.521940000000     0.970910000000     0.834760000000     0.0412891  
H103     H      0.537910000000     0.004670000000     0.616800000000     0.0371469  
H104     H      0.500180000000     0.064200000000     0.886190000000     0.0882478  
H105     H      0.524730000000     0.063600000000     0.849510000000     0.0799151  
H106     H      0.453790000000     0.053530000000     0.219960000000     0.0433096  
H107     H      0.522150000000     0.051910000000     0.321070000000     0.0348646  
H108     H      0.488030000000     0.947840000000     0.310730000000     0.0407772  
H109     H      0.510690000000     0.067670000000     0.114900000000     0.0362875  
H110     H      0.551160000000     0.020230000000     0.366600000000     0.038915   
H111     H      0.436440000000     0.005270000000     0.167260000000     0.0330414  
H112     H      0.541380000000     0.037830000000     0.160810000000     0.0343619  
H113     H      0.432380000000     0.003970000000     0.102350000000     0.0379646  
H114     H      0.486040000000     0.942000000000     0.375910000000     0.0141447  
H115     H      0.460170000000     0.042330000000     0.282140000000     0.0401649  
H116     H      0.518750000000     0.047170000000     0.386070000000     0.0393561  
H117     H      0.529790000000     0.974510000000     0.197860000000     0.0404527  
H118     H      0.479940000000     0.039500000000     0.337300000000     0.0368602  
H119     H      0.538530000000     0.035850000000     0.095650000000     0.0405662  
H120     H      0.468240000000     0.977060000000     0.147750000000     0.0374103  
H121     H      0.529190000000     0.996010000000     0.143490000000     0.037475   
H122     H      0.538750000000     0.965850000000     0.260110000000     0.0446753  
H123     H      0.460730000000     0.979370000000     0.331510000000     0.0420275  
H124     H      0.440100000000     0.046550000000     0.119760000000     0.037763   
H125     H      0.548790000000     0.939080000000     0.382430000000     0.0910798  
H126     H      0.534710000000     0.921420000000     0.344440000000     0.0783152  
H127     H      0.951200000000     0.529330000000     0.764390000000     0.0436196  
H128     H      0.957890000000     0.447690000000     0.672680000000     0.0348461  
H129     H      0.055880000000     0.497750000000     0.672990000000     0.0414418  
H130     H      0.930200000000     0.476000000000     0.868420000000     0.0363683  
H131     H      0.991840000000     0.420410000000     0.627540000000     0.0373908  
H132     H      0.999490000000     0.547300000000     0.821700000000     0.0333325  
H133     H      0.961330000000     0.444200000000     0.824090000000     0.0345639  
H134     H      0.996910000000     0.550230000000     0.886790000000     0.0378816  
H135     H      0.057160000000     0.495640000000     0.607250000000     0.0141078  
H136     H      0.964690000000     0.520180000000     0.702840000000     0.0404     
H137     H      0.958270000000     0.445540000000     0.607670000000     0.0378672  
H138     H      0.030730000000     0.456040000000     0.792800000000     0.0407287  
H139     H      0.962260000000     0.489690000000     0.652410000000     0.0374355  
H140     H      0.958870000000     0.445930000000     0.889210000000     0.0406102  
H141     H      0.024940000000     0.513930000000     0.842380000000     0.0373835  
H142     H      0.002520000000     0.453770000000     0.844330000000     0.0378364  
H143     H      0.041790000000     0.444390000000     0.731220000000     0.0451691  
H144     H      0.019440000000     0.518580000000     0.652720000000     0.0428505  
H145     H      0.955180000000     0.544920000000     0.866570000000     0.0379033  
H146     H      0.069140000000     0.433770000000     0.604780000000     0.0906995  
H147     H      0.087000000000     0.453180000000     0.640230000000     0.0786464  
H148     H      0.039240000000     0.527040000000     0.222010000000     0.0432687  
H149     H      0.049280000000     0.459140000000     0.321960000000     0.0346871  
H150     H      0.945020000000     0.493960000000     0.326110000000     0.0409751  
H151     H      0.041750000000     0.467350000000     0.117490000000     0.0365929  
H152     H      0.024330000000     0.429030000000     0.370640000000     0.0390166  
H153     H      0.985100000000     0.544320000000     0.174010000000     0.0333336  
H154     H      0.015650000000     0.439000000000     0.166820000000     0.0343019  
H155     H      0.977380000000     0.546710000000     0.109170000000     0.0389061  
H156     H      0.947700000000     0.494150000000     0.391660000000     0.0152856  
H157     H      0.035520000000     0.520900000000     0.285160000000     0.0399305  
H158     H      0.053000000000     0.461530000000     0.387200000000     0.0393872  
H159     H      0.956710000000     0.452580000000     0.209900000000     0.0402686  
H160     H      0.039220000000     0.500950000000     0.340550000000     0.0362548  
H161     H      0.007110000000     0.440570000000     0.102060000000     0.0407494  
H162     H      0.954970000000     0.512410000000     0.157950000000     0.0380524  
H163     H      0.972600000000     0.451650000000     0.153310000000     0.0370596  
H164     H      0.955390000000     0.443900000000     0.272830000000     0.0446483  
H165     H      0.979290000000     0.520340000000     0.343360000000     0.042661   
H166     H      0.021430000000     0.540080000000     0.122830000000     0.0382191  
H167     H      0.944360000000     0.431300000000     0.396550000000     0.0914544  
H168     H      0.922290000000     0.446910000000     0.361620000000     0.0783906  
H169     H      0.227950000000     0.934020000000     0.533510000000     0.0434053  
H170     H      0.322750000000     0.036640000000     0.504380000000     0.0342342  
H171     H      0.325670000000     0.936050000000     0.459920000000     0.0420218  
H172     H      0.126410000000     0.943130000000     0.545750000000     0.037978   
H173     H      0.370880000000     0.036820000000     0.463880000000     0.0406857  
H174     H      0.172270000000     0.947220000000     0.445550000000     0.0341789  
H175     H      0.173020000000     0.985160000000     0.549210000000     0.0335811  
H176     H      0.107290000000     0.948240000000     0.445110000000     0.0406194  
H177     H      0.390710000000     0.936490000000     0.462780000000     0.0175944  
H178     H      0.290100000000     0.944840000000     0.527370000000     0.040019   
H179     H      0.387860000000     0.037600000000     0.507450000000     0.0377164  
H180     H      0.206730000000     0.014240000000     0.458310000000     0.0404459  
H181     H      0.340510000000     0.001030000000     0.528950000000     0.0377634  
H182     H      0.108010000000     0.985720000000     0.549870000000     0.0394214  
H183     H      0.153820000000     0.989260000000     0.454740000000     0.0372745  
H184     H      0.154740000000     0.011370000000     0.514960000000     0.0382861  
H185     H      0.268960000000     0.022670000000     0.449690000000     0.0445283  
H186     H      0.343430000000     0.943100000000     0.502660000000     0.0418615  
H187     H      0.125560000000     0.918020000000     0.475350000000     0.0363207  
H188     H      0.397400000000     0.975910000000     0.413960000000     0.086808   
H189     H      0.362110000000     0.949820000000     0.410130000000     0.0785772  
H190     H      0.716570000000     0.946360000000     0.458840000000     0.0397359  
H191     H      0.824240000000     0.971290000000     0.547180000000     0.0341891  
H192     H      0.826010000000     0.999550000000     0.440510000000     0.0417593  
H193     H      0.622340000000     0.028390000000     0.522760000000     0.0386767  
H194     H      0.876010000000     0.005410000000     0.540140000000     0.0407477  
H195     H      0.671010000000     0.929550000000     0.511900000000     0.0337577  
H196     H      0.672950000000     0.036520000000     0.486860000000     0.0337418  
H197     H      0.606210000000     0.928570000000     0.499540000000     0.0398009  
H198     H      0.890780000000     0.986200000000     0.438980000000     0.0170199  
H199     H      0.779440000000     0.948160000000     0.456000000000     0.0396443  
H200     H      0.887950000000     0.960850000000     0.546000000000     0.0382589  
H201     H      0.717780000000     0.022740000000     0.540870000000     0.043878   
H202     H      0.837040000000     0.940580000000     0.514310000000     0.0377987  
H203     H      0.608830000000     0.036190000000     0.478740000000     0.0393903  
H204     H      0.658340000000     0.944080000000     0.469080000000     0.0357219  
H205     H      0.658800000000     0.005120000000     0.455230000000     0.0381478  
H206     H      0.781020000000     0.026810000000     0.535800000000     0.0446837  
H207     H      0.838390000000     0.956690000000     0.453930000000     0.0407215  
H208     H      0.619060000000     0.951310000000     0.538010000000     0.0373373  
H209     H      0.905980000000     0.041100000000     0.466020000000     0.0896151  
H210     H      0.870040000000     0.043850000000     0.440630000000     0.0792625  
H211     H      0.947420000000     0.746860000000     0.463770000000     0.0434067  
H212     H      0.946480000000     0.641870000000     0.526760000000     0.0346761  
H213     H      0.047910000000     0.648500000000     0.484530000000     0.0410505  
H214     H      0.945010000000     0.849340000000     0.525490000000     0.0366245  
H215     H      0.976500000000     0.593020000000     0.551000000000     0.0388413  
H216     H      0.001700000000     0.795840000000     0.446060000000     0.0333496  
H217     H      0.971860000000     0.799730000000     0.552280000000     0.0343181  
H218     H      0.008430000000     0.860340000000     0.445230000000     0.0388493  
H219     H      0.050070000000     0.583660000000     0.479240000000     0.0155199  
H220     H      0.954110000000     0.684010000000     0.466410000000     0.0399687  
H221     H      0.947200000000     0.577150000000     0.518580000000     0.0392549  
H222     H      0.032850000000     0.758800000000     0.535270000000     0.040349   
H223     H      0.954760000000     0.627660000000     0.482720000000     0.0360949  
H224     H      0.979840000000     0.864340000000     0.552390000000     0.0407019  
H225     H      0.031830000000     0.811430000000     0.478340000000     0.037962   
H226     H      0.014650000000     0.814050000000     0.539650000000     0.0369947  
H227     H      0.037290000000     0.695950000000     0.540540000000     0.0447696  
H228     H      0.013060000000     0.630750000000     0.459170000000     0.0426885  
H229     H      0.964620000000     0.846010000000     0.452060000000     0.0382271  
H230     H      0.058220000000     0.574280000000     0.541510000000     0.0910843  
H231     H      0.076510000000     0.611730000000     0.527250000000     0.0782297  
H232     H      0.967850000000     0.193380000000     0.454960000000     0.0434839  
H233     H      0.060830000000     0.298270000000     0.483490000000     0.0339509  
H234     H      0.955850000000     0.296820000000     0.516340000000     0.0422044  
H235     H      0.986620000000     0.095040000000     0.447780000000     0.0377052  
H236     H      0.054710000000     0.348080000000     0.520820000000     0.0405955  
H237     H      0.986230000000     0.145240000000     0.547710000000     0.0344658  
H238     H      0.024300000000     0.144580000000     0.444200000000     0.0333587  
H239     H      0.994310000000     0.080450000000     0.550890000000     0.0408095  
H240     H      0.952920000000     0.361710000000     0.509060000000     0.0169899  
H241     H      0.971810000000     0.256500000000     0.456940000000     0.0400756  
H242     H      0.057990000000     0.363010000000     0.476670000000     0.0368645  
H243     H      0.046840000000     0.186060000000     0.534130000000     0.0403437  
H244     H      0.026860000000     0.312450000000     0.454590000000     0.0374758  
H245     H      0.030510000000     0.079660000000     0.447010000000     0.0383127  
H246     H      0.029600000000     0.130050000000     0.538670000000     0.0362002  
H247     H      0.051240000000     0.129880000000     0.479560000000     0.037516   
H248     H      0.048300000000     0.249160000000     0.538550000000     0.0445563  
H249     H      0.967080000000     0.312800000000     0.473810000000     0.0411961  
H250     H      0.960410000000     0.094780000000     0.522550000000     0.0371643  
H251     H      0.984050000000     0.373130000000     0.562920000000     0.0883454  
H252     H      0.959610000000     0.336580000000     0.564800000000     0.0790207  
N1       N      0.588760000000     0.517530000000     0.993920000000    -0.178347   
N2       N      0.661560000000     0.522130000000     0.995920000000    -0.106547   
N3       N      0.808740000000     0.505240000000     0.996490000000    -0.112932   
N4       N      0.880730000000     0.500270000000     0.004710000000    -0.16712    
N5       N      0.606340000000     0.569160000000     0.024040000000    -0.190395   
N6       N      0.088120000000     0.496260000000     0.981520000000    -0.17864    
N7       N      0.160750000000     0.496780000000     0.974530000000    -0.10653    
N8       N      0.307540000000     0.510000000000     0.987320000000    -0.113376   
N9       N      0.380350000000     0.507780000000     0.988130000000    -0.167534   
N10      N      0.104840000000     0.523310000000     0.927800000000    -0.190367   
N11      N      0.484030000000     0.906910000000     0.007080000000    -0.178032   
N12      N      0.483900000000     0.834140000000     0.014510000000    -0.106524   
N13      N      0.472600000000     0.687010000000     0.000580000000    -0.11326    
N14      N      0.478270000000     0.614270000000     0.997120000000    -0.167457   
N15      N      0.460000000000     0.890460000000     0.062320000000    -0.190247   
N16      N      0.480280000000     0.113570000000     0.975490000000    -0.178163   
N17      N      0.480980000000     0.186080000000     0.966110000000    -0.106606   
N18      N      0.493690000000     0.333280000000     0.978050000000    -0.113284   
N19      N      0.490160000000     0.406010000000     0.983810000000    -0.167031   
N20      N      0.447840000000     0.128720000000     0.924340000000    -0.190595   
N21      N      0.479490000000     0.000450000000     0.886510000000    -0.178572   
N22      N      0.478030000000     0.997300000000     0.813420000000    -0.106437   
N23      N      0.493280000000     0.979130000000     0.667320000000    -0.113473   
N24      N      0.493650000000     0.981670000000     0.594140000000    -0.167667   
N25      N      0.503280000000     0.052470000000     0.861850000000    -0.190474   
N26      N      0.507990000000     0.992200000000     0.385370000000    -0.179297   
N27      N      0.508820000000     0.999010000000     0.312500000000    -0.106423   
N28      N      0.488150000000     0.024690000000     0.167680000000    -0.113582   
N29      N      0.483650000000     0.024640000000     0.094590000000    -0.168334   
N30      N      0.537660000000     0.944590000000     0.358240000000    -0.190529   
N31      N      0.010350000000     0.465930000000     0.603340000000    -0.179319   
N32      N      0.008320000000     0.469930000000     0.676520000000    -0.106607   
N33      N      0.977780000000     0.496670000000     0.819050000000    -0.113577   
N34      N      0.973330000000     0.499960000000     0.892160000000    -0.167904   
N35      N      0.063660000000     0.445780000000     0.628540000000    -0.190614   
N36      N      0.998240000000     0.471160000000     0.394010000000    -0.178361   
N37      N      0.995740000000     0.472660000000     0.320710000000    -0.106322   
N38      N      0.004200000000     0.492570000000     0.173650000000    -0.113421   
N39      N      0.998110000000     0.495740000000     0.100560000000    -0.167359   
N40      N      0.946980000000     0.443160000000     0.372220000000    -0.190473   
N41      N      0.393860000000     0.989620000000     0.479670000000    -0.178297   
N42      N      0.320780000000     0.987800000000     0.478770000000    -0.106572   
N43      N      0.176270000000     0.963150000000     0.498520000000    -0.113615   
N44      N      0.103190000000     0.961750000000     0.499540000000    -0.167476   
N45      N      0.372820000000     0.970480000000     0.424090000000    -0.190191   
N46      N      0.895080000000     0.981460000000     0.494450000000    -0.177979   
N47      N      0.822650000000     0.990480000000     0.495130000000    -0.106508   
N48      N      0.674800000000     0.984020000000     0.504030000000    -0.113181   
N49      N      0.602120000000     0.984120000000     0.497460000000    -0.167368   
N50      N      0.880040000000     0.033540000000     0.463720000000    -0.190339   
N51      N      0.001590000000     0.575530000000     0.505370000000    -0.179005   
N52      N      0.998710000000     0.648130000000     0.509870000000    -0.106346   
N53      N      0.982940000000     0.794630000000     0.498190000000    -0.113533   
N54      N      0.988180000000     0.867300000000     0.496920000000    -0.167918   
N55      N      0.052990000000     0.599020000000     0.531770000000    -0.190538   
N56      N      0.007670000000     0.367380000000     0.500200000000    -0.178821   
N57      N      0.009810000000     0.294750000000     0.504370000000    -0.106409   
N58      N      0.000990000000     0.147760000000     0.494320000000    -0.113377   
N59      N      0.004110000000     0.075120000000     0.495950000000    -0.168007   
N60      N      0.981540000000     0.347850000000     0.553470000000    -0.190259   
O1       O      0.945960000000     0.974040000000     0.524160000000    -0.401749   
O2       O      0.050760000000     0.968520000000     0.526960000000    -0.398413   
O3       O      0.000620000000     0.023520000000     0.525180000000    -0.400693   
O4       O      0.994490000000     0.918900000000     0.525740000000    -0.400252   
O5       O      0.994670000000     0.918640000000     0.467720000000    -0.399407   
O6       O      0.005750000000     0.023000000000     0.467390000000    -0.399613   
O7       O      0.052160000000     0.964800000000     0.469090000000    -0.398343   
O8       O      0.947550000000     0.976820000000     0.466250000000    -0.398635   
O9       O      0.977190000000     0.418270000000     0.498380000000    -0.403699   
O10      O      0.974210000000     0.522820000000     0.504260000000    -0.40153    
O11      O      0.972490000000     0.473630000000     0.447890000000    -0.40096    
O12      O      0.978770000000     0.466940000000     0.552970000000    -0.402574   
O13      O      0.036160000000     0.472950000000     0.549910000000    -0.400322   
O14      O      0.030110000000     0.471670000000     0.444400000000    -0.399808   
O15      O      0.031450000000     0.524900000000     0.496780000000    -0.402289   
O16      O      0.034950000000     0.420020000000     0.496920000000    -0.400555   
O17      O      0.549480000000     0.956380000000     0.493410000000    -0.397476   
O18      O      0.444940000000     0.959510000000     0.482290000000    -0.401431   
O19      O      0.501870000000     0.960560000000     0.435520000000    -0.401579   
O20      O      0.491640000000     0.955370000000     0.540580000000    -0.397335   
O21      O      0.496790000000     0.012800000000     0.543530000000    -0.401101   
O22      O      0.501990000000     0.018210000000     0.438620000000    -0.402027   
O23      O      0.446040000000     0.016860000000     0.488800000000    -0.398357   
O24      O      0.551050000000     0.014080000000     0.493290000000    -0.39998    
O25      O      0.509540000000     0.062760000000     0.984520000000    -0.402339   
O26      O      0.511570000000     0.958460000000     0.995820000000    -0.398995   
O27      O      0.509370000000     0.005650000000     0.937800000000    -0.402599   
O28      O      0.511530000000     0.017140000000     0.042470000000    -0.400189   
O29      O      0.453760000000     0.017070000000     0.043630000000    -0.399618   
O30      O      0.451770000000     0.001270000000     0.939330000000    -0.399758   
O31      O      0.453960000000     0.957710000000     0.000090000000    -0.400066   
O32      O      0.451820000000     0.061620000000     0.983040000000    -0.397842   
O33      O      0.990800000000     0.468100000000     0.048250000000    -0.399035   
O34      O      0.977740000000     0.470220000000     0.943610000000    -0.399188   
O35      O      0.036430000000     0.468170000000     0.990010000000    -0.399726   
O36      O      0.931940000000     0.470180000000     0.001470000000    -0.398441   
O37      O      0.933290000000     0.527900000000     0.002840000000    -0.399377   
O38      O      0.037450000000     0.525900000000     0.990500000000    -0.402262   
O39      O      0.980220000000     0.527900000000     0.944380000000    -0.39875    
O40      O      0.990840000000     0.525820000000     0.049530000000    -0.397602   
O41      O      0.489090000000     0.455970000000     0.016370000000    -0.396392   
O42      O      0.478570000000     0.560540000000     0.022900000000    -0.397129   
O43      O      0.431610000000     0.503230000000     0.018000000000    -0.398199   
O44      O      0.536110000000     0.513570000000     0.021460000000    -0.4006     
O45      O      0.537920000000     0.511990000000     0.963510000000    -0.400036   
O46      O      0.432960000000     0.512440000000     0.960750000000    -0.399241   
O47      O      0.485500000000     0.564430000000     0.965460000000    -0.398496   
O48      O      0.485320000000     0.459660000000     0.958620000000    -0.398498   


