data_structure

_audit_creation_method RASPA-1.0
_audit_creation_date 2023-6-4
_audit_author_name 'Poobodin Mano'

_cell_length_a    27.3878
_cell_length_b    24.2826
_cell_length_c    37.3195
_cell_angle_alpha 89.9988
_cell_angle_beta  89.9988
_cell_angle_gamma 93.6701
_cell_volume      24768.3

_symmetry_cell_setting          triclinic
_symmetry_space_group_name_Hall 'P 1'
_symmetry_space_group_name_H-M  'P 1'
_symmetry_Int_Tables_number     1

_symmetry_equiv_pos_as_xyz 'x,y,z'

loop_
_atom_site_label
_atom_site_type_symbol
_atom_site_fract_x
_atom_site_fract_y
_atom_site_fract_z
_atom_site_charge
C1       C      0.068760000000     0.964530000000     0.996240000000     0.403889   
C2       C      0.914460000000     0.083880000000     0.013730000000     0.397979   
C3       C      0.046950000000     0.110640000000     0.031870000000     0.403301   
C4       C      0.940700000000     0.939010000000     0.978750000000     0.408526   
C5       C      0.073660000000     0.024670000000     0.515520000000     0.400695   
C6       C      0.892530000000     0.094500000000     0.514990000000     0.397249   
C7       C      0.017230000000     0.161610000000     0.500600000000     0.405232   
C8       C      0.947160000000     0.956930000000     0.530280000000     0.405029   
C9       C      0.500660000000     0.491040000000     0.952410000000     0.478764   
C10      C      0.484430000000     0.560700000000     0.080130000000     0.472125   
C11      C      0.557770000000     0.460840000000     0.037270000000     0.477574   
C12      C      0.431130000000     0.591800000000     0.996820000000     0.4729     
C13      C      0.481180000000     0.575080000000     0.449750000000     0.474245   
C14      C      0.477500000000     0.549010000000     0.584940000000     0.47227    
C15      C      0.531700000000     0.476270000000     0.513120000000     0.468098   
C16      C      0.428750000000     0.643180000000     0.524430000000     0.466117   
C17      C      0.533650000000     0.512520000000     0.860160000000    -0.0323227  
C18      C      0.445710000000     0.491110000000     0.674800000000    -0.0316094  
C19      C      0.510220000000     0.578850000000     0.643840000000    -0.00279371 
C20      C      0.432300000000     0.516310000000     0.638840000000    -0.00240019 
C21      C      0.459520000000     0.544860000000     0.760840000000    -0.0548532  
C22      C      0.513060000000     0.453890000000     0.777320000000    -0.0547436  
C23      C      0.479630000000     0.514780000000     0.733100000000     0.060804   
C24      C      0.519940000000     0.550660000000     0.679520000000    -0.0314148  
C25      C      0.493410000000     0.484360000000     0.805090000000     0.0603189  
C26      C      0.458250000000     0.453390000000     0.861900000000    -0.0591973  
C27      C      0.466270000000     0.529950000000     0.796570000000    -0.0566243  
C28      C      0.471170000000     0.431260000000     0.899310000000     0.0824139  
C29      C      0.548920000000     0.491430000000     0.896700000000    -0.00316768 
C30      C      0.506310000000     0.468820000000     0.741570000000    -0.0569862  
C31      C      0.423540000000     0.413560000000     0.919410000000    -0.184129   
C32      C      0.436030000000     0.580300000000     0.173110000000    -0.0330821  
C33      C      0.523840000000     0.614670000000     0.357800000000    -0.0317861  
C34      C      0.438040000000     0.560370000000     0.392350000000    -0.00266746 
C35      C      0.513740000000     0.626910000000     0.397250000000    -0.00212335 
C36      C      0.460470000000     0.639370000000     0.279770000000    -0.0552408  
C37      C      0.510990000000     0.557220000000     0.246130000000    -0.0541022  
C38      C      0.483140000000     0.600450000000     0.300620000000     0.0610273  
C39      C      0.451920000000     0.551650000000     0.353210000000    -0.0314204  
C40      C      0.487070000000     0.595180000000     0.225260000000     0.0595158  
C41      C      0.513980000000     0.633580000000     0.167950000000    -0.0591729  
C42      C      0.462460000000     0.637030000000     0.242410000000    -0.0563648  
C43      C      0.507530000000     0.630760000000     0.126370000000     0.0827618  
C44      C      0.438090000000     0.555050000000     0.135980000000     0.00162135 
C45      C      0.509290000000     0.559810000000     0.283540000000    -0.0573552  
C46      C      0.484640000000     0.682610000000     0.112090000000    -0.187072   
C47      C      0.164400000000     0.924590000000     0.496840000000    -0.0318915  
C48      C      0.390150000000     0.788130000000     0.532240000000    -0.0316091  
C49      C      0.345690000000     0.676010000000     0.526770000000    -0.00272189 
C50      C      0.419830000000     0.739510000000     0.543690000000    -0.00354129 
C51      C      0.266920000000     0.823780000000     0.556770000000    -0.0544811  
C52      C      0.280260000000     0.900550000000     0.501380000000    -0.0543507  
C53      C      0.306750000000     0.820240000000     0.533440000000     0.0602028  
C54      C      0.320720000000     0.727390000000     0.514810000000    -0.0313975  
C55      C      0.240610000000     0.904270000000     0.524860000000     0.0596891  
C56      C      0.190100000000     0.974310000000     0.550800000000    -0.0584028  
C57      C      0.233670000000     0.864630000000     0.552280000000    -0.0562336  
C58      C      0.160410000000     0.023850000000     0.540420000000     0.0791234  
C59      C      0.134790000000     0.972390000000     0.484340000000    -0.00679354 
C60      C      0.312580000000     0.858530000000     0.505130000000    -0.0564833  
C61      C      0.145190000000     0.054310000000     0.574410000000    -0.185429   
C62      C      0.868560000000     0.844980000000     0.504640000000    -0.0318381  
C63      C      0.631730000000     0.709580000000     0.557030000000    -0.0234781  
C64      C      0.604640000000     0.654660000000     0.490870000000    -0.0175495  
C65      C      0.579860000000     0.684990000000     0.549570000000    -0.0173069  
C66      C      0.714330000000     0.806340000000     0.520470000000    -0.0548242  
C67      C      0.790130000000     0.745030000000     0.545960000000    -0.0549945  
C68      C      0.704810000000     0.750530000000     0.528990000000     0.0611151  
C69      C      0.656640000000     0.679300000000     0.497240000000    -0.0233877  
C70      C      0.799930000000     0.800370000000     0.536510000000     0.0608545  
C71      C      0.855310000000     0.864920000000     0.568300000000    -0.0591621  
C72      C      0.761390000000     0.831370000000     0.524430000000    -0.0567961  
C73      C      0.909850000000     0.883400000000     0.572830000000     0.0808064  
C74      C      0.922700000000     0.863350000000     0.508300000000    -0.00574492 
C75      C      0.742970000000     0.720250000000     0.542540000000    -0.0569817  
C76      C      0.916650000000     0.922900000000     0.604960000000    -0.185778   
C77      C      0.639190000000     0.393460000000     0.491910000000    -0.0328973  
C78      C      0.792180000000     0.172370000000     0.548670000000    -0.0300986  
C79      C      0.822730000000     0.127220000000     0.480490000000    -0.0071947  
C80      C      0.817940000000     0.118260000000     0.547790000000    -0.00765464 
C81      C      0.687420000000     0.217120000000     0.497600000000    -0.0547239  
C82      C      0.710760000000     0.315860000000     0.533870000000    -0.0539765  
C83      C      0.732340000000     0.224140000000     0.515580000000     0.0601615  
C84      C      0.797550000000     0.181660000000     0.483790000000    -0.0303381  
C85      C      0.665060000000     0.308070000000     0.517000000000     0.0591634  
C86      C      0.579190000000     0.332080000000     0.520770000000    -0.0579178  
C87      C      0.654480000000     0.258850000000     0.497600000000    -0.0557017  
C88      C      0.546900000000     0.379290000000     0.531590000000     0.080605   
C89      C      0.613010000000     0.444640000000     0.502670000000    -0.00254698 
C90      C      0.744520000000     0.275020000000     0.532620000000    -0.0564003  
C91      C      0.492810000000     0.358710000000     0.526910000000    -0.183268   
C92      C      0.110620000000     0.247020000000     0.463320000000    -0.0320011  
C93      C      0.303560000000     0.440230000000     0.534240000000    -0.0240098  
C94      C      0.383170000000     0.434250000000     0.484350000000    -0.0176415  
C95      C      0.355000000000     0.465610000000     0.541950000000    -0.0162578  
C96      C      0.247390000000     0.313230000000     0.512780000000    -0.0552869  
C97      C      0.173990000000     0.371670000000     0.480960000000    -0.0551235  
C98      C      0.257740000000     0.367990000000     0.502060000000     0.0610047  
C99      C      0.331960000000     0.409170000000     0.475570000000    -0.0235247  
C100     C      0.163390000000     0.317330000000     0.492310000000     0.0609403  
C101     C      0.091300000000     0.280340000000     0.523680000000    -0.0598299  
C102     C      0.200640000000     0.287860000000     0.507890000000    -0.0569074  
C103     C      0.037260000000     0.261740000000     0.518190000000     0.0821635  
C104     C      0.056920000000     0.227260000000     0.457560000000    -0.00674536 
C105     C      0.220750000000     0.396910000000     0.485640000000    -0.0569753  
C106     C      0.010450000000     0.252940000000     0.554170000000    -0.185812   
C107     C      0.164540000000     0.885300000000     0.950650000000    -0.0311274  
C108     C      0.315380000000     0.660880000000     0.999610000000    -0.0315272  
C109     C      0.410570000000     0.676480000000     0.964830000000    -0.00313938 
C110     C      0.344040000000     0.610620000000     0.990790000000    -0.00224818 
C111     C      0.251170000000     0.743360000000     0.953040000000    -0.0551014  
C112     C      0.263200000000     0.830470000000     0.001830000000    -0.0544719  
C113     C      0.292720000000     0.747420000000     0.974970000000     0.0607071  
C114     C      0.378500000000     0.723860000000     0.974040000000    -0.0313282  
C115     C      0.221790000000     0.826600000000     0.979670000000     0.0599714  
C116     C      0.147030000000     0.845200000000     0.010600000000    -0.054774   
C117     C      0.215580000000     0.781800000000     0.955720000000    -0.0565258  
C118     C      0.097040000000     0.871920000000     0.007050000000     0.0702905  
C119     C      0.134880000000     0.935130000000     0.957950000000    -0.00402166 
C120     C      0.298030000000     0.790860000000     0.000010000000    -0.0569143  
C121     C      0.058350000000     0.834000000000     0.986970000000    -0.158915   
C122     C      0.834410000000     0.874880000000     0.943150000000    -0.0325575  
C123     C      0.658850000000     0.666900000000     0.020170000000    -0.0242208  
C124     C      0.570470000000     0.665350000000     0.978140000000    -0.0137671  
C125     C      0.610780000000     0.637060000000     0.032110000000    -0.0150412  
C126     C      0.707090000000     0.794570000000     0.998230000000    -0.0546715  
C127     C      0.772820000000     0.743630000000     0.953640000000    -0.0553602  
C128     C      0.694610000000     0.741690000000     0.984710000000     0.0605813  
C129     C      0.617590000000     0.696510000000     0.965260000000    -0.0248567  
C130     C      0.785530000000     0.796090000000     0.967500000000     0.0611397  
C131     C      0.865320000000     0.819810000000     0.992800000000    -0.0581814  
C132     C      0.752310000000     0.821600000000     0.989910000000    -0.0570064  
C133     C      0.917980000000     0.836830000000     0.981870000000     0.0776049  
C134     C      0.886960000000     0.894920000000     0.932900000000    -0.00597608 
C135     C      0.727990000000     0.716400000000     0.962240000000    -0.0567984  
C136     C      0.955080000000     0.829860000000     0.012530000000    -0.165568   
C137     C      0.621640000000     0.339070000000     0.072910000000    -0.0329444  
C138     C      0.823130000000     0.189430000000     0.996240000000    -0.0301228  
C139     C      0.847790000000     0.112130000000     0.052400000000    -0.00643141 
C140     C      0.873580000000     0.166210000000     0.995630000000    -0.00648761 
C141     C      0.765210000000     0.265060000000     0.065230000000    -0.0549216  
C142     C      0.687440000000     0.259390000000     0.016560000000    -0.0545885  
C143     C      0.764330000000     0.226050000000     0.037560000000     0.0605321  
C144     C      0.798330000000     0.137830000000     0.049240000000    -0.030231   
C145     C      0.690050000000     0.300630000000     0.042850000000     0.0602184  
C146     C      0.678320000000     0.398400000000     0.036140000000    -0.0596958  
C147     C      0.728060000000     0.301540000000     0.068290000000    -0.0567319  
C148     C      0.645230000000     0.445850000000     0.045810000000     0.0833562  
C149     C      0.577940000000     0.373190000000     0.064820000000     0.00131049 
C150     C      0.723780000000     0.221620000000     0.014230000000    -0.0568065  
C151     C      0.661430000000     0.475270000000     0.080720000000    -0.186284   
C152     C      0.139750000000     0.186090000000     0.087210000000    -0.0327689  
C153     C      0.321680000000     0.394700000000     0.021170000000    -0.0224486  
C154     C      0.406200000000     0.404830000000     0.067020000000    -0.0200851  
C155     C      0.359250000000     0.443800000000     0.019200000000    -0.0205749  
C156     C      0.241710000000     0.337090000000     0.082470000000    -0.0552001  
C157     C      0.242280000000     0.241210000000     0.040980000000    -0.054308   
C158     C      0.282530000000     0.327870000000     0.061220000000     0.0610657  
C159     C      0.368890000000     0.355100000000     0.069380000000    -0.022836   
C160     C      0.200490000000     0.251870000000     0.060750000000     0.0606811  
C161     C      0.117470000000     0.248030000000     0.038820000000    -0.0583982  
C162     C      0.200970000000     0.299410000000     0.082400000000    -0.0567461  
C163     C      0.079220000000     0.206560000000     0.022450000000     0.0817209  
C164     C      0.086820000000     0.160300000000     0.083290000000    -0.00424014 
C165     C      0.283120000000     0.278730000000     0.041210000000    -0.0569355  
C166     C      0.030670000000     0.233720000000     0.016570000000    -0.189011   
Cu1      Cu     0.998500000000     0.044570000000     0.974930000000     0.844361   
Cu2      Cu     0.986820000000     0.006180000000     0.035850000000     0.841028   
Cu3      Cu     0.979620000000     0.049110000000     0.483090000000     0.841059   
Cu4      Cu     0.985970000000     0.069100000000     0.547630000000     0.82869    
Cu5      Cu     0.531140000000     0.566670000000     0.009740000000     1.21       
Cu6      Cu     0.456700000000     0.483670000000     0.023400000000     1.19207    
Cu7      Cu     0.522880000000     0.595630000000     0.520020000000     1.18306    
Cu8      Cu     0.438030000000     0.524700000000     0.514280000000     1.19535    
H1       H      0.522300000000     0.444960000000     0.720630000000     0.039788   
H2       H      0.567300000000     0.523420000000     0.844270000000     0.0338797  
H3       H      0.436540000000     0.420530000000     0.846940000000     0.0399119  
H4       H      0.494540000000     0.619120000000     0.649350000000     0.0348491  
H5       H      0.571910000000     0.455860000000     0.892430000000     0.0339427  
H6       H      0.411270000000     0.476680000000     0.688720000000     0.0331705  
H7       H      0.541080000000     0.580740000000     0.696990000000     0.0336827  
H8       H      0.415450000000     0.482920000000     0.621580000000     0.035948   
H9       H      0.534150000000     0.418870000000     0.783470000000     0.0430967  
H10      H      0.572350000000     0.524360000000     0.910070000000     0.0407736  
H11      H      0.439000000000     0.580350000000     0.754710000000     0.0434376  
H12      H      0.513500000000     0.550530000000     0.863870000000     0.0384594  
H13      H      0.545820000000     0.587630000000     0.629970000000     0.0381139  
H14      H      0.491080000000     0.393300000000     0.894840000000     0.0161127  
H15      H      0.467480000000     0.454630000000     0.669930000000     0.0360438  
H16      H      0.542710000000     0.514990000000     0.674700000000     0.036843   
H17      H      0.450900000000     0.554380000000     0.817500000000     0.0397071  
H18      H      0.435270000000     0.489330000000     0.865060000000     0.0429892  
H19      H      0.404210000000     0.546620000000     0.643510000000     0.0349743  
H20      H      0.403110000000     0.449980000000     0.926810000000     0.0736521  
H21      H      0.399360000000     0.386330000000     0.902150000000     0.0579048  
H22      H      0.431420000000     0.388730000000     0.943470000000     0.0787721  
H23      H      0.527380000000     0.529470000000     0.299070000000     0.0395788  
H24      H      0.413480000000     0.551430000000     0.190560000000     0.0337422  
H25      H      0.553450000000     0.630690000000     0.174240000000     0.0411085  
H26      H      0.408120000000     0.589200000000     0.393390000000     0.0355326  
H27      H      0.443340000000     0.510150000000     0.138680000000     0.0384809  
H28      H      0.543610000000     0.651670000000     0.345790000000     0.0333662  
H29      H      0.417790000000     0.541380000000     0.337740000000     0.0335954  
H30      H      0.549280000000     0.630840000000     0.411740000000     0.0356022  
H31      H      0.530120000000     0.524870000000     0.233320000000     0.0431461  
H32      H      0.402390000000     0.558750000000     0.122250000000     0.0315073  
H33      H      0.440400000000     0.670960000000     0.292560000000     0.0433178  
H34      H      0.417900000000     0.620030000000     0.171810000000     0.0333991  
H35      H      0.423320000000     0.520190000000     0.403490000000     0.0372967  
H36      H      0.544880000000     0.631060000000     0.114510000000     0.0176651  
H37      H      0.547940000000     0.579530000000     0.355910000000     0.0358658  
H38      H      0.475360000000     0.515930000000     0.351350000000     0.0359648  
H39      H      0.443770000000     0.666950000000     0.226920000000     0.038454   
H40      H      0.504030000000     0.674390000000     0.178360000000     0.0385848  
H41      H      0.497070000000     0.667390000000     0.399110000000     0.0360683  
H42      H      0.447240000000     0.685620000000     0.123120000000     0.065708   
H43      H      0.507540000000     0.720230000000     0.119690000000     0.0594595  
H44      H      0.482220000000     0.681340000000     0.082390000000     0.0740369  
H45      H      0.341640000000     0.855930000000     0.485720000000     0.0397752  
H46      H      0.177280000000     0.902910000000     0.472660000000     0.0335075  
H47      H      0.222670000000     0.989300000000     0.566730000000     0.039825   
H48      H      0.331510000000     0.663360000000     0.553660000000     0.0363755  
H49      H      0.157830000000     0.999020000000     0.465910000000     0.0361488  
H50      H      0.402060000000     0.824830000000     0.548640000000     0.0337823  
H51      H      0.280460000000     0.718750000000     0.517510000000     0.0333727  
H52      H      0.458550000000     0.748220000000     0.535370000000     0.0376636  
H53      H      0.285400000000     0.929660000000     0.479510000000     0.042737   
H54      H      0.102890000000     0.954590000000     0.468830000000     0.0397119  
H55      H      0.260940000000     0.793690000000     0.578000000000     0.042959   
H56      H      0.140550000000     0.894690000000     0.512670000000     0.0383285  
H57      H      0.335200000000     0.642000000000     0.507750000000     0.0390713  
H58      H      0.186020000000     0.053150000000     0.525610000000     0.0156912  
H59      H      0.398570000000     0.797690000000     0.503650000000     0.03604    
H60      H      0.328970000000     0.736140000000     0.486050000000     0.0377296  
H61      H      0.202530000000     0.864670000000     0.570060000000     0.0394626  
H62      H      0.166720000000     0.945690000000     0.567820000000     0.0428989  
H63      H      0.419400000000     0.736860000000     0.573440000000     0.0348893  
H64      H      0.119010000000     0.027960000000     0.590700000000     0.0748686  
H65      H      0.177850000000     0.065080000000     0.591280000000     0.0577637  
H66      H      0.129430000000     0.093910000000     0.567340000000     0.0746133  
H67      H      0.736510000000     0.677320000000     0.549930000000     0.0400567  
H68      H      0.864680000000     0.811960000000     0.483960000000     0.0340763  
H69      H      0.841270000000     0.846170000000     0.593840000000     0.0399213  
H70      H      0.582430000000     0.685140000000     0.477130000000     0.0361813  
H71      H      0.943040000000     0.826520000000     0.515070000000     0.0332031  
H72      H      0.629300000000     0.746580000000     0.574360000000     0.0315942  
H73      H      0.672090000000     0.694450000000     0.471220000000     0.0317747  
H74      H      0.562810000000     0.670900000000     0.575220000000     0.0329711  
H75      H      0.819300000000     0.720950000000     0.555730000000     0.0428353  
H76      H      0.936840000000     0.879030000000     0.482060000000     0.0396631  
H77      H      0.685240000000     0.830290000000     0.510410000000     0.0433666  
H78      H      0.848390000000     0.880720000000     0.495380000000     0.0403135  
H79      H      0.606410000000     0.617810000000     0.473410000000     0.0319874  
H80      H      0.929070000000     0.845780000000     0.579820000000     0.0155773  
H81      H      0.652350000000     0.678650000000     0.571790000000     0.0360738  
H82      H      0.679220000000     0.646020000000     0.507240000000     0.0356568  
H83      H      0.767820000000     0.874530000000     0.517610000000     0.0407121  
H84      H      0.834090000000     0.901460000000     0.562270000000     0.0445567  
H85      H      0.557210000000     0.716830000000     0.537770000000     0.0360095  
H86      H      0.896830000000     0.960910000000     0.600810000000     0.0750112  
H87      H      0.901680000000     0.902340000000     0.629560000000     0.0581626  
H88      H      0.956140000000     0.933170000000     0.610050000000     0.0757859  
H89      H      0.779530000000     0.283220000000     0.545560000000     0.0392321  
H90      H      0.678900000000     0.405670000000     0.489160000000     0.0330169  
H91      H      0.573760000000     0.298020000000     0.540660000000     0.0397188  
H92      H      0.794560000000     0.093640000000     0.474100000000     0.0363782  
H93      H      0.632390000000     0.464260000000     0.526060000000     0.0390202  
H94      H      0.766760000000     0.171370000000     0.571950000000     0.0331125  
H95      H      0.776310000000     0.187600000000     0.458810000000     0.0329246  
H96      H      0.840650000000     0.115420000000     0.572320000000     0.0378952  
H97      H      0.720220000000     0.353950000000     0.548080000000     0.0424353  
H98      H      0.616230000000     0.474710000000     0.480140000000     0.0353167  
H99      H      0.677940000000     0.178980000000     0.483460000000     0.0425271  
H100     H      0.625650000000     0.377880000000     0.465400000000     0.0365682  
H101     H      0.849040000000     0.130780000000     0.457790000000     0.0393851  
H102     H      0.552920000000     0.386780000000     0.560730000000     0.0160311  
H103     H      0.820530000000     0.206770000000     0.552550000000     0.0359207  
H104     H      0.825590000000     0.216760000000     0.486290000000     0.0379047  
H105     H      0.620580000000     0.251750000000     0.483020000000     0.0387397  
H106     H      0.567020000000     0.315870000000     0.494060000000     0.0408105  
H107     H      0.789530000000     0.083440000000     0.548520000000     0.0344428  
H108     H      0.481900000000     0.361190000000     0.498320000000     0.0725473  
H109     H      0.486730000000     0.315060000000     0.535690000000     0.0577172  
H110     H      0.468620000000     0.382360000000     0.544160000000     0.0768358  
H111     H      0.227790000000     0.439190000000     0.476960000000     0.0400019  
H112     H      0.126610000000     0.260090000000     0.437010000000     0.0339351  
H113     H      0.093890000000     0.317610000000     0.541150000000     0.0401608  
H114     H      0.404940000000     0.402730000000     0.497230000000     0.0318643  
H115     H      0.037800000000     0.261010000000     0.444520000000     0.0343853  
H116     H      0.286810000000     0.425440000000     0.559940000000     0.0313072  
H117     H      0.335520000000     0.371920000000     0.458640000000     0.0310224  
H118     H      0.351860000000     0.502820000000     0.558870000000     0.0331109  
H119     H      0.145690000000     0.394700000000     0.468870000000     0.0429937  
H120     H      0.055320000000     0.191420000000     0.438990000000     0.0402151  
H121     H      0.275510000000     0.290470000000     0.525330000000     0.0422669  
H122     H      0.130940000000     0.212020000000     0.473610000000     0.0385035  
H123     H      0.401690000000     0.447770000000     0.459130000000     0.031384   
H124     H      0.020070000000     0.296810000000     0.504950000000     0.0153709  
H125     H      0.281170000000     0.472940000000     0.523170000000     0.0358232  
H126     H      0.312030000000     0.439730000000     0.459960000000     0.0358951  
H127     H      0.193350000000     0.245690000000     0.516740000000     0.0395067  
H128     H      0.110180000000     0.246860000000     0.537300000000     0.0446017  
H129     H      0.376750000000     0.435810000000     0.556760000000     0.0323497  
H130     H      0.029940000000     0.225240000000     0.572160000000     0.0743059  
H131     H      0.008900000000     0.293190000000     0.568160000000     0.0582962  
H132     H      0.972140000000     0.236500000000     0.549720000000     0.0748099  
H133     H      0.328640000000     0.794120000000     0.018340000000     0.0392935  
H134     H      0.194710000000     0.898040000000     0.931830000000     0.0338249  
H135     H      0.161720000000     0.855190000000     0.037780000000     0.0432603  
H136     H      0.405640000000     0.666310000000     0.935950000000     0.0335427  
H137     H      0.160150000000     0.971990000000     0.963060000000     0.0389597  
H138     H      0.275670000000     0.647760000000     0.999200000000     0.0324471  
H139     H      0.385840000000     0.757680000000     0.954260000000     0.0334248  
H140     H      0.337500000000     0.579620000000     0.012480000000     0.0353452  
H141     H      0.267790000000     0.863590000000     0.021210000000     0.0434934  
H142     H      0.113530000000     0.944060000000     0.933510000000     0.0368011  
H143     H      0.245790000000     0.709310000000     0.934420000000     0.0424272  
H144     H      0.140710000000     0.852520000000     0.937470000000     0.033634   
H145     H      0.449550000000     0.690860000000     0.968800000000     0.0365935  
H146     H      0.082820000000     0.876090000000     0.034800000000     0.0242445  
H147     H      0.324920000000     0.676020000000     0.027080000000     0.0365404  
H148     H      0.388990000000     0.739700000000     0.001130000000     0.0350998  
H149     H      0.183130000000     0.775940000000     0.939330000000     0.0388038  
H150     H      0.141670000000     0.799340000000     0.009860000000     0.0376702  
H151     H      0.329610000000     0.591910000000     0.965410000000     0.0331519  
H152     H      0.059030000000     0.842590000000     0.957730000000     0.0644464  
H153     H      0.065360000000     0.789750000000     0.990490000000     0.0535081  
H154     H      0.019630000000     0.837830000000     0.996970000000     0.0407777  
H155     H      0.719950000000     0.675140000000     0.952000000000     0.0398848  
H156     H      0.811760000000     0.872120000000     0.918390000000     0.0338979  
H157     H      0.863980000000     0.777470000000     0.004400000000     0.0392505  
H158     H      0.547610000000     0.693340000000     0.993530000000     0.0328908  
H159     H      0.900160000000     0.867290000000     0.911710000000     0.0341677  
H160     H      0.678810000000     0.682820000000     0.044390000000     0.0307597  
H161     H      0.607760000000     0.733780000000     0.950230000000     0.0319223  
H162     H      0.618930000000     0.600740000000     0.048600000000     0.0295517  
H163     H      0.798390000000     0.723200000000     0.936870000000     0.0426507  
H164     H      0.886780000000     0.937410000000     0.921780000000     0.03786    
H165     H      0.682150000000     0.814250000000     0.015920000000     0.042512   
H166     H      0.819160000000     0.905790000000     0.961340000000     0.0384422  
H167     H      0.549290000000     0.649730000000     0.954470000000     0.0314312  
H168     H      0.927840000000     0.806860000000     0.960860000000     0.0164771  
H169     H      0.681540000000     0.636610000000     0.006640000000     0.0360656  
H170     H      0.636410000000     0.669180000000     0.946550000000     0.0358971  
H171     H      0.761740000000     0.861690000000     0.001540000000     0.0405497  
H172     H      0.852700000000     0.848730000000     0.013510000000     0.0475787  
H173     H      0.589240000000     0.664840000000     0.048730000000     0.0333738  
H174     H      0.947430000000     0.854670000000     0.036570000000     0.074484   
H175     H      0.951380000000     0.786180000000     0.021680000000     0.0531507  
H176     H      0.994340000000     0.836740000000     0.003060000000     0.0467256  
H177     H      0.721090000000     0.190590000000     0.993420000000     0.0399174  
H178     H      0.607700000000     0.295550000000     0.077500000000     0.0335557  
H179     H      0.687430000000     0.401810000000     0.007140000000     0.043997   
H180     H      0.869220000000     0.133370000000     0.074260000000     0.0380158  
H181     H      0.552490000000     0.349380000000     0.046440000000     0.0399703  
H182     H      0.826050000000     0.231130000000     0.983720000000     0.0329635  
H183     H      0.782390000000     0.140530000000     0.076580000000     0.0328212  
H184     H      0.882830000000     0.156740000000     0.967370000000     0.0383505  
H185     H      0.657790000000     0.257400000000     0.997320000000     0.0441782  
H186     H      0.557360000000     0.379930000000     0.089960000000     0.0303131  
H187     H      0.795510000000     0.268050000000     0.083920000000     0.0424505  
H188     H      0.640590000000     0.353880000000     0.097770000000     0.0334847  
H189     H      0.841350000000     0.068080000000     0.060310000000     0.0371821  
H190     H      0.650940000000     0.477320000000     0.024240000000     0.0215     
H191     H      0.797640000000     0.162260000000     0.979810000000     0.0353045  
H192     H      0.772750000000     0.110950000000     0.032660000000     0.0362062  
H193     H      0.730060000000     0.331970000000     0.089530000000     0.0384418  
H194     H      0.713860000000     0.404590000000     0.050500000000     0.0386794  
H195     H      0.901040000000     0.198750000000     0.005040000000     0.0331322  
H196     H      0.658930000000     0.446720000000     0.103920000000     0.0657882  
H197     H      0.699770000000     0.492770000000     0.078290000000     0.0588898  
H198     H      0.637830000000     0.509860000000     0.086150000000     0.0710934  
H199     H      0.314130000000     0.270640000000     0.024480000000     0.039911   
H200     H      0.164710000000     0.152370000000     0.091570000000     0.0391634  
H201     H      0.132450000000     0.275750000000     0.017110000000     0.0400145  
H202     H      0.396340000000     0.437070000000     0.086420000000     0.0375109  
H203     H      0.084090000000     0.119340000000     0.096710000000     0.0397014  
H204     H      0.285160000000     0.409180000000     0.014090000000     0.0305974  
H205     H      0.366910000000     0.340580000000     0.097640000000     0.0315048  
H206     H      0.361450000000     0.458720000000     0.991090000000     0.0298295  
H207     H      0.242300000000     0.204960000000     0.024090000000     0.0449831  
H208     H      0.061760000000     0.187030000000     0.097660000000     0.0300347  
H209     H      0.240690000000     0.374760000000     0.097910000000     0.0426232  
H210     H      0.141620000000     0.212700000000     0.111520000000     0.0314898  
H211     H      0.442920000000     0.391440000000     0.074200000000     0.0333829  
H212     H      0.092970000000     0.194270000000     0.995710000000     0.0248398  
H213     H      0.331430000000     0.363270000000     0.001110000000     0.0339019  
H214     H      0.381560000000     0.321160000000     0.052360000000     0.0351379  
H215     H      0.169000000000     0.308650000000     0.097780000000     0.0388612  
H216     H      0.100580000000     0.274140000000     0.059410000000     0.0404032  
H217     H      0.347590000000     0.477830000000     0.036560000000     0.0363194  
H218     H      0.014420000000     0.244860000000     0.042660000000     0.0664362  
H219     H      0.036790000000     0.271650000000     0.000090000000     0.0601837  
H220     H      0.004020000000     0.205290000000     0.002210000000     0.0758039  
N1       N      0.505240000000     0.472550000000     0.917780000000    -0.191906   
N2       N      0.503180000000     0.469250000000     0.841690000000    -0.111319   
N3       N      0.473260000000     0.532780000000     0.696640000000    -0.113527   
N4       N      0.475240000000     0.545110000000     0.621500000000    -0.181961   
N5       N      0.478000000000     0.580970000000     0.113930000000    -0.191335   
N6       N      0.486110000000     0.588480000000     0.186790000000    -0.108438   
N7       N      0.477330000000     0.602150000000     0.339020000000    -0.113475   
N8       N      0.479800000000     0.584220000000     0.413580000000    -0.182394   
N9       N      0.120110000000     0.005930000000     0.515170000000    -0.177805   
N10      N      0.206310000000     0.946180000000     0.518300000000    -0.111167   
N11      N      0.337470000000     0.774220000000     0.537460000000    -0.113145   
N12      N      0.399390000000     0.686300000000     0.529080000000    -0.179904   
N13      N      0.928940000000     0.904050000000     0.537600000000    -0.179385   
N14      N      0.849500000000     0.823830000000     0.539310000000    -0.111725   
N15      N      0.656300000000     0.725390000000     0.523040000000    -0.116415   
N16      N      0.582270000000     0.637980000000     0.525170000000    -0.229798   
N17      N      0.560970000000     0.432160000000     0.512410000000    -0.189503   
N18      N      0.631130000000     0.351440000000     0.519780000000    -0.110126   
N19      N      0.764830000000     0.179240000000     0.515070000000    -0.113825   
N20      N      0.846700000000     0.114020000000     0.514550000000    -0.168042   
N21      N      0.034330000000     0.214570000000     0.492740000000    -0.180015   
N22      N      0.114020000000     0.293770000000     0.488630000000    -0.111699   
N23      N      0.305760000000     0.393680000000     0.508970000000    -0.116871   
N24      N      0.379190000000     0.481670000000     0.508190000000    -0.231391   
N25      N      0.102010000000     0.926420000000     0.989040000000    -0.176561   
N26      N      0.184540000000     0.865650000000     0.984510000000    -0.108866   
N27      N      0.326540000000     0.704210000000     0.972840000000    -0.113704   
N28      N      0.396570000000     0.626600000000     0.986110000000    -0.183052   
N29      N      0.918340000000     0.891980000000     0.964780000000    -0.18014    
N30      N      0.834050000000     0.820250000000     0.960630000000    -0.111751   
N31      N      0.649290000000     0.713170000000     0.995980000000    -0.116179   
N32      N      0.583070000000     0.618640000000     0.000340000000    -0.234017   
N33      N      0.592850000000     0.426890000000     0.048320000000    -0.192032   
N34      N      0.654940000000     0.342550000000     0.042160000000    -0.108267   
N35      N      0.805930000000     0.192920000000     0.033420000000    -0.113742   
N36      N      0.876610000000     0.117180000000     0.018900000000    -0.168236   
N37      N      0.071520000000     0.156930000000     0.045350000000    -0.177344   
N38      N      0.156350000000     0.217330000000     0.055020000000    -0.108092   
N39      N      0.320520000000     0.371530000000     0.057710000000    -0.116962   
N40      N      0.407400000000     0.426990000000     0.030390000000    -0.229934   
O1       O      0.057890000000     0.998840000000     0.971770000000    -0.400452   
O2       O      0.938360000000     0.086740000000     0.984150000000    -0.402931   
O3       O      0.039180000000     0.107160000000     0.998030000000    -0.403815   
O4       O      0.956240000000     0.977990000000     0.957620000000    -0.401726   
O5       O      0.946580000000     0.943540000000     0.012640000000    -0.406942   
O6       O      0.030010000000     0.072390000000     0.053080000000    -0.399232   
O7       O      0.927240000000     0.051990000000     0.039060000000    -0.399409   
O8       O      0.045740000000     0.962470000000     0.026170000000    -0.402002   
O9       O      0.048010000000     0.021950000000     0.486700000000    -0.399577   
O10      O      0.911830000000     0.078730000000     0.485670000000    -0.39818    
O11      O      0.008330000000     0.127150000000     0.475010000000    -0.401533   
O12      O      0.951810000000     0.972820000000     0.497570000000    -0.401215   
O13      O      0.959850000000     0.990150000000     0.555730000000    -0.404958   
O14      O      0.010740000000     0.146380000000     0.533200000000    -0.405707   
O15      O      0.916100000000     0.092490000000     0.544640000000    -0.399773   
O16      O      0.055450000000     0.043690000000     0.544300000000    -0.400639   
O17      O      0.528790000000     0.531020000000     0.963580000000    -0.485824   
O18      O      0.515550000000     0.584700000000     0.059020000000    -0.487266   
O19      O      0.570380000000     0.509170000000     0.026420000000    -0.492875   
O20      O      0.476250000000     0.606960000000     0.994540000000    -0.48832    
O21      O      0.417940000000     0.544090000000     0.008730000000    -0.484381   
O22      O      0.512830000000     0.444180000000     0.038020000000    -0.482911   
O23      O      0.458180000000     0.518630000000     0.069700000000    -0.485429   
O24      O      0.469300000000     0.468190000000     0.973560000000    -0.488907   
O25      O      0.512240000000     0.602360000000     0.469060000000    -0.484951   
O26      O      0.512220000000     0.577900000000     0.570150000000    -0.481703   
O27      O      0.551360000000     0.525260000000     0.512280000000    -0.479113   
O28      O      0.475140000000     0.650990000000     0.526090000000    -0.472854   
O29      O      0.409220000000     0.594890000000     0.519210000000    -0.480357   
O30      O      0.485470000000     0.468820000000     0.515080000000    -0.484276   
O31      O      0.444120000000     0.525040000000     0.565870000000    -0.483232   
O32      O      0.450400000000     0.540510000000     0.464130000000    -0.487524   


