data_structure

_audit_creation_method RASPA-1.0
_audit_creation_date 2023-5-25
_audit_author_name 'Poobodin Mano'

_cell_length_a    38.0879
_cell_length_b    37.9321
_cell_length_c    38.2397
_cell_angle_alpha 90
_cell_angle_beta  90
_cell_angle_gamma 90
_cell_volume      55247

_symmetry_cell_setting          triclinic
_symmetry_space_group_name_Hall 'P 1'
_symmetry_space_group_name_H-M  'P 1'
_symmetry_Int_Tables_number     1

_symmetry_equiv_pos_as_xyz 'x,y,z'

loop_
_atom_site_label
_atom_site_type_symbol
_atom_site_fract_x
_atom_site_fract_y
_atom_site_fract_z
_atom_site_charge
C1       C      0.969540000000     0.070030000000     0.490230000000     0.403139   
C2       C      0.008030000000     0.935170000000     0.484160000000     0.42167    
C3       C      0.922150000000     0.983420000000     0.477220000000     0.418471   
C4       C      0.055460000000     0.021540000000     0.497040000000     0.418343   
C5       C      0.997860000000     0.431630000000     0.520520000000     0.41929    
C6       C      0.002370000000     0.568860000000     0.491440000000     0.401365   
C7       C      0.994170000000     0.485800000000     0.437750000000     0.401021   
C8       C      0.006120000000     0.514720000000     0.573460000000     0.42137    
C9       C      0.556730000000     0.992220000000     0.483770000000     0.401667   
C10      C      0.419930000000     0.010350000000     0.507670000000     0.401321   
C11      C      0.476630000000     0.006240000000     0.426690000000     0.417046   
C12      C      0.499940000000     0.996200000000     0.563910000000     0.42053    
C13      C      0.483820000000     0.012220000000     0.062430000000     0.403019   
C14      C      0.501910000000     0.980650000000     0.927700000000     0.403594   
C15      C      0.485080000000     0.064000000000     0.977790000000     0.420616   
C16      C      0.501010000000     0.928730000000     0.012220000000     0.419784   
C17      C      0.995650000000     0.498990000000     0.073490000000     0.432456   
C18      C      0.020040000000     0.503830000000     0.936530000000     0.401074   
C19      C      0.076190000000     0.502390000000     0.017230000000     0.427531   
C20      C      0.938480000000     0.500630000000     0.993580000000     0.419348   
C21      C      0.494400000000     0.427730000000     0.975890000000     0.398678   
C22      C      0.522270000000     0.563730000000     0.997170000000     0.399569   
C23      C      0.440340000000     0.508080000000     0.999670000000     0.400514   
C24      C      0.575310000000     0.483310000000     0.973490000000     0.40112    
C25      C      0.848140000000     0.464700000000     0.982280000000    -0.034182   
C26      C      0.663230000000     0.502090000000     0.941290000000    -0.0305762  
C27      C      0.630420000000     0.453870000000     0.990890000000    -0.00637315 
C28      C      0.626530000000     0.487190000000     0.933890000000    -0.00619994 
C29      C      0.732260000000     0.510710000000     0.989570000000    -0.0534063  
C30      C      0.780320000000     0.474580000000     0.947500000000    -0.0553008  
C31      C      0.720050000000     0.486000000000     0.964890000000     0.0626855  
C32      C      0.666880000000     0.469500000000     0.996250000000    -0.0302944  
C33      C      0.792590000000     0.496140000000     0.974940000000     0.065793   
C34      C      0.848170000000     0.526170000000     0.965170000000    -0.111377   
C35      C      0.768250000000     0.515110000000     0.994930000000    -0.0506605  
C36      C      0.883390000000     0.533080000000     0.983370000000     0.324675   
C37      C      0.883420000000     0.467980000000     0.000770000000     0.00956108 
C38      C      0.744320000000     0.469080000000     0.943100000000    -0.0516923  
C39      C      0.167790000000     0.533970000000     0.014440000000    -0.0334706  
C40      C      0.346120000000     0.523130000000     0.981890000000    -0.0300508  
C41      C      0.391030000000     0.506560000000     0.041410000000    -0.00617579 
C42      C      0.384280000000     0.535670000000     0.982020000000    -0.00722234 
C43      C      0.277740000000     0.531990000000     0.048350000000    -0.0515971  
C44      C      0.240240000000     0.489410000000     0.001830000000    -0.0536116  
C45      C      0.295540000000     0.515260000000     0.020940000000     0.0632838  
C46      C      0.352900000000     0.494430000000     0.038280000000    -0.0303005  
C47      C      0.222470000000     0.506200000000     0.029570000000     0.0663946  
C48      C      0.168340000000     0.470940000000     0.024840000000    -0.109636   
C49      C      0.241700000000     0.527240000000     0.052810000000    -0.0493212  
C50      C      0.129760000000     0.470940000000     0.036250000000     0.324258   
C51      C      0.129800000000     0.537310000000     0.026590000000     0.00931094 
C52      C      0.276580000000     0.493020000000     0.998230000000    -0.0538488  
C53      C      0.539870000000     0.840070000000     0.010620000000    -0.0342257  
C54      C      0.528400000000     0.658150000000     0.976400000000    -0.0300345  
C55      C      0.531140000000     0.613290000000     0.038230000000    -0.00646933 
C56      C      0.542980000000     0.620730000000     0.973550000000    -0.00723223 
C57      C      0.547510000000     0.728700000000     0.040040000000    -0.0521775  
C58      C      0.496520000000     0.763680000000     0.000620000000    -0.0525781  
C59      C      0.527600000000     0.709550000000     0.015750000000     0.0629948  
C60      C      0.516400000000     0.650890000000     0.038440000000    -0.0305071  
C61      C      0.516390000000     0.782780000000     0.025350000000     0.0646624  
C62      C      0.477640000000     0.834960000000     0.023310000000    -0.10974    
C63      C      0.541660000000     0.764700000000     0.045110000000    -0.0492637  
C64      C      0.475530000000     0.873410000000     0.035340000000     0.323231   
C65      C      0.540690000000     0.878420000000     0.023040000000     0.0101578  
C66      C      0.501280000000     0.727340000000     0.996690000000    -0.0538716  
C67      C      0.503810000000     0.159790000000     0.973710000000    -0.0349661  
C68      C      0.488470000000     0.330910000000     0.993760000000    -0.0298911  
C69      C      0.477520000000     0.379780000000     0.935740000000    -0.00642973 
C70      C      0.505430000000     0.367260000000     0.995460000000    -0.00711443 
C71      C      0.496940000000     0.263680000000     0.927460000000    -0.0521726  
C72      C      0.452420000000     0.227320000000     0.973050000000    -0.0538565  
C73      C      0.478240000000     0.282450000000     0.952880000000     0.0626567  
C74      C      0.461730000000     0.342590000000     0.937610000000    -0.0302958  
C75      C      0.472490000000     0.208360000000     0.948420000000     0.0652583  
C76      C      0.443310000000     0.150830000000     0.956640000000    -0.10939    
C77      C      0.493860000000     0.227090000000     0.925050000000    -0.0498529  
C78      C      0.449150000000     0.111140000000     0.950860000000     0.322732   
C79      C      0.513210000000     0.121300000000     0.967300000000     0.00975707 
C80      C      0.454490000000     0.264120000000     0.974550000000    -0.0538562  
C81      C      0.494250000000     0.962010000000     0.654830000000    -0.034906   
C82      C      0.477440000000     0.967420000000     0.835210000000    -0.0313289  
C83      C      0.541040000000     0.978640000000     0.876180000000    -0.00410478 
C84      C      0.479240000000     0.954110000000     0.872980000000    -0.00489621 
C85      C      0.537100000000     0.954230000000     0.762000000000    -0.0521585  
C86      C      0.493480000000     0.003620000000     0.729490000000    -0.0521067  
C87      C      0.513440000000     0.973720000000     0.782320000000     0.0640686  
C88      C      0.536400000000     0.991700000000     0.838580000000    -0.0315314  
C89      C      0.517510000000     0.984080000000     0.709200000000     0.0653531  
C90      C      0.515030000000     0.022230000000     0.657080000000    -0.109842   
C91      C      0.539290000000     0.959540000000     0.725930000000    -0.0489219  
C92      C      0.524140000000     0.022360000000     0.617980000000     0.322887   
C93      C      0.503400000000     0.958440000000     0.616110000000     0.00977924 
C94      C      0.492200000000     0.999230000000     0.765820000000    -0.0534909  
C95      C      0.463080000000     0.978990000000     0.333900000000    -0.0337422  
C96      C      0.447420000000     0.004710000000     0.151450000000    -0.0313188  
C97      C      0.507130000000     0.038110000000     0.117120000000    -0.00573992 
C98      C      0.444160000000     0.016690000000     0.113350000000    -0.00435084 
C99      C      0.490140000000     0.998230000000     0.225650000000    -0.0528584  
C100     C      0.442520000000     0.040090000000     0.262620000000    -0.0503773  
C101     C      0.469880000000     0.023470000000     0.207580000000     0.0632308  
C102     C      0.507430000000     0.025960000000     0.155290000000    -0.030624   
C103     C      0.463260000000     0.015740000000     0.280860000000     0.0657883  
C104     C      0.484630000000     0.039040000000     0.335680000000    -0.111863   
C105     C      0.487620000000     0.995150000000     0.262040000000    -0.054168   
C106     C      0.474060000000     0.043540000000     0.374010000000     0.324712   
C107     C      0.452570000000     0.979970000000     0.372580000000     0.00911637 
C108     C      0.445980000000     0.044100000000     0.226470000000    -0.050875   
C109     C      0.048660000000     0.523160000000     0.659800000000    -0.0338592  
C110     C      0.012460000000     0.482460000000     0.842970000000    -0.0308277  
C111     C      0.044790000000     0.536530000000     0.886510000000    -0.00680131 
C112     C      0.025070000000     0.473090000000     0.879850000000    -0.00588228 
C113     C      0.004920000000     0.539410000000     0.777610000000    -0.0521039  
C114     C      0.044420000000     0.497510000000     0.732090000000    -0.0544429  
C115     C      0.029390000000     0.515210000000     0.791380000000     0.0629006  
C116     C      0.031940000000     0.543160000000     0.849290000000    -0.0302734  
C117     C      0.021780000000     0.523450000000     0.718330000000     0.0670694  
C118     C      0.986950000000     0.508920000000     0.667440000000    -0.112866   
C119     C      0.001860000000     0.543930000000     0.741500000000    -0.0503733  
C120     C      0.977770000000     0.522550000000     0.630920000000     0.327175   
C121     C      0.042420000000     0.536400000000     0.622550000000     0.0110413  
C122     C      0.048650000000     0.494090000000     0.768220000000    -0.0503938  
C123     C      0.970740000000     0.465430000000     0.162240000000    -0.0348774  
C124     C      0.954500000000     0.480150000000     0.349170000000    -0.0303568  
C125     C      0.023670000000     0.475070000000     0.381490000000    -0.00591401 
C126     C      0.957620000000     0.467720000000     0.387230000000    -0.0072106  
C127     C      0.005050000000     0.453240000000     0.271250000000    -0.0510256  
C128     C      0.967310000000     0.507970000000     0.239940000000    -0.0529818  
C129     C      0.984750000000     0.475600000000     0.292240000000     0.0632966  
C130     C      0.017440000000     0.488750000000     0.344550000000    -0.0305535  
C131     C      0.988950000000     0.486210000000     0.219200000000     0.0677235  
C132     C      0.987690000000     0.526320000000     0.168130000000    -0.110021   
C133     C      0.007550000000     0.458800000000     0.235320000000    -0.0491141  
C134     C      0.001100000000     0.528450000000     0.130360000000     0.324148   
C135     C      0.985140000000     0.462570000000     0.125180000000     0.00973013 
C136     C      0.966080000000     0.503390000000     0.276240000000    -0.0525201  
C137     C      0.147940000000     0.037760000000     0.474040000000    -0.033602   
C138     C      0.331170000000     0.049560000000     0.502440000000    -0.0304982  
C139     C      0.363990000000     0.985580000000     0.529170000000    -0.00662967 
C140     C      0.369470000000     0.050630000000     0.514710000000    -0.00583882 
C141     C      0.255270000000     0.007530000000     0.492740000000    -0.0519087  
C142     C      0.219630000000     0.054900000000     0.536000000000    -0.0500223  
C143     C      0.274110000000     0.026480000000     0.518360000000     0.0632732  
C144     C      0.325820000000     0.987520000000     0.516920000000    -0.0301783  
C145     C      0.200650000000     0.035510000000     0.511170000000     0.0663408  
C146     C      0.144300000000     0.017040000000     0.534080000000    -0.111389   
C147     C      0.218830000000     0.011170000000     0.489950000000    -0.0535822  
C148     C      0.105880000000     0.028690000000     0.537170000000     0.325576   
C149     C      0.109560000000     0.049630000000     0.474400000000     0.0102413  
C150     C      0.255820000000     0.050190000000     0.539780000000    -0.0499427  
C151     C      0.831890000000     0.990320000000     0.445010000000    -0.0339636  
C152     C      0.645110000000     0.948330000000     0.474030000000    -0.0285099  
C153     C      0.614730000000     0.019080000000     0.475620000000    -0.00710241 
C154     C      0.607750000000     0.952880000000     0.488210000000    -0.00786574 
C155     C      0.725430000000     0.998030000000     0.496070000000    -0.0507115  
C156     C      0.754920000000     0.950490000000     0.448690000000    -0.048539   
C157     C      0.703230000000     0.977070000000     0.475490000000     0.0645001  
C158     C      0.650810000000     0.010170000000     0.460560000000    -0.0286263  
C159     C      0.777010000000     0.970470000000     0.470310000000     0.0650248  
C160     C      0.831840000000     0.963280000000     0.502810000000    -0.110577   
C161     C      0.761880000000     0.995440000000     0.493060000000    -0.0531479  
C162     C      0.869930000000     0.951350000000     0.498770000000     0.323622   
C163     C      0.870090000000     0.979060000000     0.438670000000     0.0103372  
C164     C      0.718400000000     0.954140000000     0.450680000000    -0.0537523  
C165     C      0.022670000000     0.846160000000     0.446830000000    -0.0343001  
C166     C      0.034800000000     0.657850000000     0.462830000000    -0.0299583  
C167     C      0.973870000000     0.626490000000     0.497280000000    -0.00844262 
C168     C      0.038180000000     0.620370000000     0.476870000000    -0.00538048 
C169     C      0.994160000000     0.735870000000     0.459900000000    -0.0517929  
C170     C      0.047420000000     0.768500000000     0.498390000000    -0.0502213  
C171     C      0.015640000000     0.715470000000     0.482090000000     0.0641185  
C172     C      0.975480000000     0.664420000000     0.483670000000    -0.0284384  
C173     C      0.025200000000     0.789170000000     0.477630000000     0.0672572  
C174     C      0.007060000000     0.841510000000     0.508210000000    -0.114022   
C175     C      0.998220000000     0.772520000000     0.458500000000    -0.0539292  
C176     C      0.018330000000     0.879380000000     0.515530000000     0.327793   
C177     C      0.033240000000     0.884960000000     0.451040000000     0.0113631  
C178     C      0.042470000000     0.732170000000     0.500880000000    -0.0495006  
C179     C      0.015470000000     0.337850000000     0.508190000000    -0.0338839  
C180     C      0.956680000000     0.155240000000     0.532490000000    -0.0313075  
C181     C      0.965380000000     0.128370000000     0.461630000000    -0.00514911 
C182     C      0.941530000000     0.119270000000     0.522530000000    -0.00531164 
C183     C      0.992440000000     0.224380000000     0.533550000000    -0.0537253  
C184     C      0.956760000000     0.276720000000     0.496300000000    -0.053598   
C185     C      0.966440000000     0.214690000000     0.509130000000     0.0644006  
C186     C      0.980440000000     0.163670000000     0.473880000000    -0.0309823  
C187     C      0.980820000000     0.286450000000     0.522590000000     0.0652042  
C188     C      0.956840000000     0.345460000000     0.532550000000    -0.110235   
C189     C      0.998950000000     0.259930000000     0.540620000000    -0.047499   
C190     C      0.966380000000     0.381540000000     0.547550000000     0.3236     
C191     C      0.027380000000     0.373580000000     0.522700000000     0.0103488  
C192     C      0.949220000000     0.241210000000     0.490250000000    -0.0519514  
Cu1      Cu     0.992890000000     0.005470000000     0.455190000000     0.842789   
Cu2      Cu     0.984630000000     0.999750000000     0.518980000000     0.870537   
Cu3      Cu     0.967780000000     0.501640000000     0.508350000000     0.857609   
Cu4      Cu     0.032340000000     0.498700000000     0.502930000000     0.8519     
Cu5      Cu     0.483610000000     0.969090000000     0.493970000000     0.843968   
Cu6      Cu     0.492910000000     0.033440000000     0.496650000000     0.859025   
Cu7      Cu     0.524760000000     0.001100000000     0.998210000000     0.851044   
Cu8      Cu     0.460970000000     0.991600000000     0.991950000000     0.851162   
Cu9      Cu     0.007780000000     0.468940000000     0.004040000000     0.857258   
Cu10     Cu     0.007040000000     0.534040000000     0.005820000000     0.868132   
Cu11     Cu     0.512780000000     0.489610000000     0.017820000000     0.850471   
Cu12     Cu     0.502930000000     0.502060000000     0.955210000000     0.839419   
F1       F      0.877290000000     0.549830000000     0.014970000000    -0.433289   
F2       F      0.128190000000     0.469340000000     0.072390000000    -0.423289   
F3       F      0.476440000000     0.874400000000     0.071520000000    -0.436639   
F4       F      0.451350000000     0.104610000000     0.915310000000    -0.435649   
F5       F      0.560130000000     0.018890000000     0.614200000000    -0.434793   
F6       F      0.442480000000     0.061570000000     0.375720000000    -0.43467    
F7       F      0.964930000000     0.556600000000     0.633530000000    -0.433921   
F8       F      0.037360000000     0.531200000000     0.130840000000    -0.422846   
F9       F      0.104460000000     0.061250000000     0.553490000000    -0.433536   
F10      F      0.870390000000     0.916420000000     0.488250000000    -0.436223   
F11      F      0.051990000000     0.879370000000     0.529210000000    -0.4343     
F12      F      0.975000000000     0.377700000000     0.582530000000    -0.436004   
H1       H      0.735280000000     0.450840000000     0.923250000000     0.047055   
H2       H      0.832710000000     0.443520000000     0.995320000000     0.0399177  
H3       H      0.832730000000     0.551090000000     0.965130000000     0.0828592  
H4       H      0.633410000000     0.427260000000     0.979040000000     0.0381252  
H5       H      0.878710000000     0.469400000000     0.029440000000     0.0540653  
H6       H      0.676520000000     0.507010000000     0.915830000000     0.0374884  
H7       H      0.682980000000     0.450400000000     0.011450000000     0.0380207  
H8       H      0.610830000000     0.507550000000     0.919970000000     0.0416217  
H9       H      0.899080000000     0.551210000000     0.966670000000    -0.00512857 
H10      H      0.798340000000     0.460730000000     0.930520000000     0.0435117  
H11      H      0.898720000000     0.443540000000     0.995740000000     0.0401159  
H12      H      0.714190000000     0.525490000000     0.005710000000     0.0449668  
H13      H      0.852930000000     0.456790000000     0.954650000000     0.0380256  
H14      H      0.617550000000     0.450390000000     0.016750000000     0.0425664  
H15      H      0.660910000000     0.527680000000     0.955410000000     0.0411794  
H16      H      0.664090000000     0.494110000000     0.011850000000     0.0412825  
H17      H      0.777270000000     0.532650000000     0.015400000000     0.0615296  
H18      H      0.852670000000     0.518290000000     0.937460000000     0.056001   
H19      H      0.629150000000     0.463900000000     0.916430000000     0.0405246  
H20      H      0.289480000000     0.478900000000     0.977310000000     0.042673   
H21      H      0.181250000000     0.559450000000     0.019890000000     0.0408812  
H22      H      0.182290000000     0.449120000000     0.038460000000     0.0850221  
H23      H      0.391960000000     0.530700000000     0.057900000000     0.0410771  
H24      H      0.129560000000     0.546380000000     0.054250000000     0.0705788  
H25      H      0.330070000000     0.542320000000     0.966750000000     0.0368763  
H26      H      0.341920000000     0.491890000000     0.065150000000     0.0386722  
H27      H      0.394600000000     0.534540000000     0.954860000000     0.0430001  
H28      H      0.117150000000     0.446700000000     0.025780000000    -0.00164505 
H29      H      0.226340000000     0.473500000000     0.982920000000     0.0429705  
H30      H      0.116800000000     0.557940000000     0.010480000000     0.0433895  
H31      H      0.291960000000     0.548760000000     0.066380000000     0.0493064  
H32      H      0.168670000000     0.529270000000     0.985680000000     0.0392934  
H33      H      0.406210000000     0.485590000000     0.055000000000     0.0429446  
H34      H      0.345050000000     0.497130000000     0.968460000000     0.0390515  
H35      H      0.351750000000     0.468040000000     0.025530000000     0.0416571  
H36      H      0.228440000000     0.540690000000     0.074030000000     0.057068   
H37      H      0.169290000000     0.465830000000     0.996200000000     0.0533781  
H38      H      0.384830000000     0.563740000000     0.990400000000     0.039241   
H39      H      0.484720000000     0.713650000000     0.978210000000     0.0425888  
H40      H      0.566340000000     0.828510000000     0.015200000000     0.0390539  
H41      H      0.457440000000     0.819370000000     0.037560000000     0.0830594  
H42      H      0.558840000000     0.614050000000     0.047400000000     0.0409245  
H43      H      0.550150000000     0.879100000000     0.050550000000     0.0595614  
H44      H      0.541730000000     0.675000000000     0.956610000000     0.0367209  
H45      H      0.520630000000     0.662190000000     0.064970000000     0.0380991  
H46      H      0.536040000000     0.609820000000     0.947480000000     0.0429048  
H47      H      0.449810000000     0.884310000000     0.026860000000    -0.00256878 
H48      H      0.477050000000     0.776390000000     0.984400000000     0.0426802  
H49      H      0.559860000000     0.893170000000     0.006680000000     0.0392916  
H50      H      0.567610000000     0.715540000000     0.055240000000     0.0480522  
H51      H      0.534450000000     0.839070000000     0.982010000000     0.0398918  
H52      H      0.515800000000     0.597030000000     0.056990000000     0.0424264  
H53      H      0.499840000000     0.657170000000     0.970290000000     0.039537   
H54      H      0.487600000000     0.650290000000     0.033340000000     0.0420709  
H55      H      0.557380000000     0.778820000000     0.064110000000     0.0525221  
H56      H      0.471460000000     0.834190000000     0.994860000000     0.0536828  
H57      H      0.572110000000     0.622120000000     0.974970000000     0.0388669  
H58      H      0.438920000000     0.277890000000     0.993860000000     0.0427329  
H59      H      0.527930000000     0.175830000000     0.969440000000     0.0388533  
H60      H      0.421980000000     0.160030000000     0.938990000000     0.0844851  
H61      H      0.500210000000     0.379390000000     0.917440000000     0.0420961  
H62      H      0.526000000000     0.118970000000     0.941250000000     0.0563165  
H63      H      0.505070000000     0.312150000000     0.008860000000     0.0364446  
H64      H      0.458230000000     0.332680000000     0.910440000000     0.0379805  
H65      H      0.503350000000     0.377050000000     0.022800000000     0.0430356  
H66      H      0.425790000000     0.096830000000     0.961000000000    -0.00309096 
H67      H      0.435960000000     0.213910000000     0.991840000000     0.0431237  
H68      H      0.532760000000     0.113240000000     0.987380000000     0.0390681  
H69      H      0.514990000000     0.277380000000     0.910300000000     0.0484359  
H70      H      0.495360000000     0.163510000000     0.001370000000     0.0392831  
H71      H      0.457580000000     0.398060000000     0.924640000000     0.0410075  
H72      H      0.462170000000     0.332280000000     0.006410000000     0.0383671  
H73      H      0.435420000000     0.343520000000     0.950290000000     0.0402367  
H74      H      0.509740000000     0.213000000000     0.906170000000     0.0541721  
H75      H      0.434610000000     0.154840000000     0.984140000000     0.0533901  
H76      H      0.533870000000     0.364540000000     0.989460000000     0.0395039  
H77      H      0.474250000000     0.015410000000     0.780700000000     0.0485468  
H78      H      0.496080000000     0.935370000000     0.666940000000     0.0393901  
H79      H      0.532840000000     0.040850000000     0.670920000000     0.0855788  
H80      H      0.555610000000     0.953240000000     0.875660000000     0.0400314  
H81      H      0.528830000000     0.944240000000     0.613680000000     0.0566486  
H82      H      0.459850000000     0.949700000000     0.820020000000     0.0390631  
H83      H      0.562710000000     0.992310000000     0.825910000000     0.0403319  
H84      H      0.452830000000     0.956750000000     0.885050000000     0.0475108  
H85      H      0.516530000000     0.048420000000     0.607030000000    -0.00226754 
H86      H      0.475750000000     0.022320000000     0.717540000000     0.0451011  
H87      H      0.482890000000     0.941940000000     0.603400000000     0.0389532  
H88      H      0.553980000000     0.934860000000     0.774260000000     0.0488132  
H89      H      0.466710000000     0.971470000000     0.657810000000     0.0399227  
H90      H      0.557320000000     0.998140000000     0.890620000000     0.0460742  
H91      H      0.465810000000     0.994330000000     0.835420000000     0.0484007  
H92      H      0.525680000000     0.019030000000     0.838660000000     0.0502731  
H93      H      0.557620000000     0.943970000000     0.710750000000     0.0545233  
H94      H      0.487610000000     0.031880000000     0.660170000000     0.0546534  
H95      H      0.485860000000     0.925570000000     0.872500000000     0.0385513  
H96      H      0.429870000000     0.063330000000     0.213020000000     0.049463   
H97      H      0.445340000000     0.960400000000     0.319930000000     0.0414454  
H98      H      0.483640000000     0.065390000000     0.322870000000     0.0818914  
H99      H      0.502230000000     0.067010000000     0.116560000000     0.0387409  
H100     H      0.423690000000     0.983910000000     0.374270000000     0.0565233  
H101     H      0.420850000000     0.005810000000     0.163550000000     0.0409493  
H102     H      0.525660000000     0.043170000000     0.170310000000     0.0378273  
H103     H      0.427360000000     0.997450000000     0.099160000000     0.049831   
H104     H      0.494440000000     0.059960000000     0.387000000000    -0.00448547 
H105     H      0.423970000000     0.056460000000     0.276650000000     0.0621516  
H106     H      0.458510000000     0.953880000000     0.384450000000     0.0402962  
H107     H      0.508300000000     0.981230000000     0.211960000000     0.0457725  
H108     H      0.490400000000     0.968770000000     0.332060000000     0.0381528  
H109     H      0.533570000000     0.033530000000     0.105700000000     0.0446274  
H110     H      0.456750000000     0.976890000000     0.152490000000     0.0513764  
H111     H      0.517550000000     0.998460000000     0.156160000000     0.0441813  
H112     H      0.504640000000     0.976580000000     0.275170000000     0.043714   
H113     H      0.512140000000     0.029190000000     0.333960000000     0.0556827  
H114     H      0.430700000000     0.042700000000     0.112720000000     0.04126    
H115     H      0.066870000000     0.474670000000     0.778320000000     0.0476415  
H116     H      0.071310000000     0.537750000000     0.671130000000     0.04149    
H117     H      0.963520000000     0.512390000000     0.684510000000     0.0842834  
H118     H      0.073620000000     0.532020000000     0.885710000000     0.0391551  
H119     H      0.040920000000     0.565670000000     0.623160000000     0.058423   
H120     H      0.014180000000     0.458300000000     0.826530000000     0.0384298  
H121     H      0.048280000000     0.564340000000     0.837420000000     0.0391259  
H122     H      0.006630000000     0.453500000000     0.891310000000     0.0426963  
H123     H      0.956570000000     0.505560000000     0.620130000000     0.00236472 
H124     H      0.059290000000     0.480170000000     0.715260000000     0.0461741  
H125     H      0.065430000000     0.529180000000     0.606160000000     0.0418989  
H126     H      0.988500000000     0.555280000000     0.794420000000     0.0458442  
H127     H      0.055470000000     0.494660000000     0.658410000000     0.0429049  
H128     H      0.040150000000     0.560650000000     0.902360000000     0.0453256  
H129     H      0.984480000000     0.490970000000     0.843800000000     0.042473   
H130     H      0.004260000000     0.552440000000     0.850730000000     0.0417617  
H131     H      0.983570000000     0.563290000000     0.731420000000     0.0626746  
H132     H      0.993110000000     0.480230000000     0.666270000000     0.0661396  
H133     H      0.051400000000     0.460550000000     0.877970000000     0.0412635  
H134     H      0.950600000000     0.521670000000     0.291470000000     0.0436632  
H135     H      0.971650000000     0.438700000000     0.174240000000     0.0398988  
H136     H      0.002520000000     0.545610000000     0.184340000000     0.0888929  
H137     H      0.031260000000     0.446790000000     0.380050000000     0.0408799  
H138     H      0.010470000000     0.447970000000     0.125970000000     0.062436   
H139     H      0.931300000000     0.467200000000     0.337040000000     0.0373058  
H140     H      0.041370000000     0.483010000000     0.328820000000     0.0397582  
H141     H      0.934900000000     0.478130000000     0.402280000000     0.0438962  
H142     H      0.990670000000     0.553050000000     0.118410000000     0.00240601 
H143     H      0.952040000000     0.529050000000     0.228520000000     0.0452469  
H144     H      0.966540000000     0.446680000000     0.109210000000     0.0401263  
H145     H      0.019940000000     0.432020000000     0.283070000000     0.0488967  
H146     H      0.942780000000     0.474060000000     0.161700000000     0.0419676  
H147     H      0.046130000000     0.489870000000     0.392890000000     0.0439656  
H148     H      0.950140000000     0.509160000000     0.349250000000     0.0398069  
H149     H      0.013590000000     0.517870000000     0.345000000000     0.0431306  
H150     H      0.024110000000     0.441620000000     0.219830000000     0.0561181  
H151     H      0.959460000000     0.533970000000     0.168590000000     0.0573654  
H152     H      0.955860000000     0.438470000000     0.387680000000     0.0392063  
H153     H      0.269810000000     0.065260000000     0.559400000000     0.0501868  
H154     H      0.162840000000     0.054940000000     0.455700000000     0.0413976  
H155     H      0.156460000000     0.018490000000     0.560520000000     0.0851265  
H156     H      0.364400000000     0.987250000000     0.558190000000     0.0398837  
H157     H      0.108810000000     0.078470000000     0.479520000000     0.058434   
H158     H      0.319680000000     0.076260000000     0.506300000000     0.040944   
H159     H      0.310200000000     0.967750000000     0.531760000000     0.0390221  
H160     H      0.384330000000     0.068890000000     0.497420000000     0.0511981  
H161     H      0.091900000000     0.009300000000     0.553970000000     0.00384744 
H162     H      0.206150000000     0.073450000000     0.552830000000     0.0623761  
H163     H      0.098110000000     0.045200000000     0.448020000000     0.0412762  
H164     H      0.268320000000     0.989470000000     0.475180000000     0.0446834  
H165     H      0.148840000000     0.010190000000     0.464150000000     0.0414831  
H166     H      0.374860000000     0.959410000000     0.521820000000     0.0444483  
H167     H      0.330050000000     0.043260000000     0.474010000000     0.0480187  
H168     H      0.325050000000     0.980500000000     0.488670000000     0.0420374  
H169     H      0.205240000000     0.995100000000     0.470950000000     0.0452596  
H170     H      0.145570000000     0.989110000000     0.525140000000     0.0641444  
H171     H      0.370320000000     0.061470000000     0.541720000000     0.0429584  
H172     H      0.702330000000     0.938420000000     0.433370000000     0.0444193  
H173     H      0.818200000000     0.991250000000     0.419310000000     0.0394501  
H174     H      0.817880000000     0.944300000000     0.520120000000     0.0852961  
H175     H      0.618310000000     0.031570000000     0.501700000000     0.0538088  
H176     H      0.870140000000     0.954170000000     0.423310000000     0.0610728  
H177     H      0.657490000000     0.925500000000     0.487530000000     0.0406656  
H178     H      0.667730000000     0.033980000000     0.463000000000     0.0377105  
H179     H      0.591170000000     0.931040000000     0.478000000000     0.0445352  
H180     H      0.882860000000     0.952830000000     0.524790000000    -0.000583165
H181     H      0.766110000000     0.931870000000     0.430340000000     0.0545482  
H182     H      0.883390000000     0.999720000000     0.422840000000     0.0388321  
H183     H      0.714310000000     0.016550000000     0.514580000000     0.0512834  
H184     H      0.831290000000     0.017270000000     0.456580000000     0.0397164  
H185     H      0.601950000000     0.038920000000     0.458370000000     0.0438408  
H186     H      0.643540000000     0.942230000000     0.445590000000     0.0380593  
H187     H      0.648550000000     0.003640000000     0.432240000000     0.0396883  
H188     H      0.778010000000     0.012440000000     0.509070000000     0.0446663  
H189     H      0.831900000000     0.989560000000     0.515730000000     0.0560289  
H190     H      0.608460000000     0.950020000000     0.517150000000     0.0507494  
H191     H      0.059490000000     0.716880000000     0.517760000000     0.0512224  
H192     H      0.038640000000     0.834280000000     0.425510000000     0.0416402  
H193     H      0.010620000000     0.825950000000     0.532660000000     0.0860833  
H194     H      0.973560000000     0.627160000000     0.526360000000     0.0528765  
H195     H      0.062330000000     0.886440000000     0.452970000000     0.0574942  
H196     H      0.061520000000     0.669740000000     0.462090000000     0.0380035  
H197     H      0.957500000000     0.680970000000     0.499700000000     0.0422675  
H198     H      0.052100000000     0.603990000000     0.457090000000     0.0413857  
H199     H      0.000320000000     0.890250000000     0.535720000000     0.00302166 
H200     H      0.067960000000     0.780870000000     0.513670000000     0.0633309  
H201     H      0.025310000000     0.899590000000     0.427120000000     0.0421653  
H202     H      0.973620000000     0.723900000000     0.444430000000     0.0446508  
H203     H      0.994520000000     0.845180000000     0.439090000000     0.0439434  
H204     H      0.948560000000     0.614520000000     0.488910000000     0.0475715  
H205     H      0.024420000000     0.657480000000     0.435580000000     0.0406941  
H206     H      0.965960000000     0.664840000000     0.456130000000     0.0387363  
H207     H      0.980050000000     0.787580000000     0.442760000000     0.047242   
H208     H      0.978680000000     0.840760000000     0.501150000000     0.0672466  
H209     H      0.054880000000     0.620860000000     0.500740000000     0.0458114  
H210     H      0.930010000000     0.234220000000     0.470550000000     0.0469118  
H211     H      0.038730000000     0.320100000000     0.507150000000     0.0404645  
H212     H      0.936450000000     0.333170000000     0.549470000000     0.0840572  
H213     H      0.939630000000     0.133240000000     0.448800000000     0.0394368  
H214     H      0.041150000000     0.369190000000     0.547960000000     0.0617239  
H215     H      0.939770000000     0.167190000000     0.553050000000     0.0415255  
H216     H      0.981360000000     0.181800000000     0.451000000000     0.0374132  
H217     H      0.942800000000     0.101510000000     0.545610000000     0.047715   
H218     H      0.942830000000     0.398770000000     0.546040000000    -0.00142851 
H219     H      0.943380000000     0.296330000000     0.480720000000     0.0431501  
H220     H      0.046400000000     0.385500000000     0.504070000000     0.0395724  
H221     H      0.007470000000     0.204760000000     0.547540000000     0.0497014  
H222     H      0.005310000000     0.341210000000     0.481070000000     0.0397693  
H223     H      0.983440000000     0.116950000000     0.441800000000     0.0441176  
H224     H      0.983370000000     0.150970000000     0.543520000000     0.0480854  
H225     H      0.007760000000     0.159900000000     0.483620000000     0.0466006  
H226     H      0.018330000000     0.266930000000     0.560150000000     0.056418   
H227     H      0.945490000000     0.349580000000     0.506050000000     0.0547036  
H228     H      0.913370000000     0.122820000000     0.515720000000     0.0392116  
N1       N      0.902780000000     0.499970000000     0.989950000000    -0.193713   
N2       N      0.829300000000     0.498480000000     0.984200000000    -0.0880253  
N3       N      0.683420000000     0.476560000000     0.962090000000    -0.112813   
N4       N      0.609770000000     0.476060000000     0.966840000000    -0.167699   
N5       N      0.111380000000     0.503120000000     0.024370000000    -0.190856   
N6       N      0.184730000000     0.505020000000     0.033510000000    -0.0871507  
N7       N      0.333020000000     0.520550000000     0.018050000000    -0.112532   
N8       N      0.405790000000     0.514870000000     0.006680000000    -0.167072   
N9       N      0.505300000000     0.894150000000     0.021540000000    -0.193379   
N10      N      0.512940000000     0.820560000000     0.030240000000    -0.08763    
N11      N      0.534550000000     0.672170000000     0.011850000000    -0.112435   
N12      N      0.530260000000     0.598470000000     0.002580000000    -0.166867   
N13      N      0.481740000000     0.098540000000     0.967830000000    -0.193146   
N14      N      0.475930000000     0.170370000000     0.949360000000    -0.0886331  
N15      N      0.485670000000     0.319600000000     0.957120000000    -0.112409   
N16      N      0.489840000000     0.392380000000     0.970230000000    -0.166393   
N17      N      0.506720000000     0.993210000000     0.598990000000    -0.192852   
N18      N      0.519020000000     0.986440000000     0.671440000000    -0.0881932  
N19      N      0.512850000000     0.967680000000     0.819690000000    -0.112014   
N20      N      0.506640000000     0.972860000000     0.893050000000    -0.164877   
N21      N      0.470040000000     0.009070000000     0.391570000000    -0.192892   
N22      N      0.460270000000     0.014500000000     0.318600000000    -0.0872163  
N23      N      0.471760000000     0.028170000000     0.170050000000    -0.111939   
N24      N      0.479080000000     0.020400000000     0.096990000000    -0.164922   
N25      N      0.009130000000     0.522600000000     0.608220000000    -0.192021   
N26      N      0.016960000000     0.528890000000     0.681170000000    -0.0864926  
N27      N      0.034790000000     0.510530000000     0.828550000000    -0.112261   
N28      N      0.027850000000     0.505020000000     0.901670000000    -0.167176   
N29      N      0.991240000000     0.497440000000     0.108950000000    -0.190097   
N30      N      0.992570000000     0.490400000000     0.181760000000    -0.0876069  
N31      N      0.986630000000     0.470940000000     0.329740000000    -0.112368   
N32      N      0.991540000000     0.478270000000     0.402860000000    -0.167123   
N33      N      0.089620000000     0.031500000000     0.502250000000    -0.191647   
N34      N      0.162920000000     0.040260000000     0.509510000000    -0.0870309  
N35      N      0.311750000000     0.023200000000     0.522920000000    -0.111738   
N36      N      0.385040000000     0.015000000000     0.514930000000    -0.165108   
N37      N      0.888160000000     0.972900000000     0.472220000000    -0.193257   
N38      N      0.814560000000     0.964830000000     0.468310000000    -0.0872801  
N39      N      0.665640000000     0.980570000000     0.480260000000    -0.110228   
N40      N      0.592170000000     0.987610000000     0.479730000000    -0.163428   
N41      N      0.017950000000     0.900500000000     0.483070000000    -0.191725   
N42      N      0.028670000000     0.827060000000     0.479850000000    -0.0861912  
N43      N      0.011610000000     0.677770000000     0.486120000000    -0.110603   
N44      N      0.003890000000     0.604460000000     0.485920000000    -0.164919   
N45      N      0.996770000000     0.396580000000     0.528790000000    -0.193543   
N46      N      0.988280000000     0.322840000000     0.531070000000    -0.0871981  
N47      N      0.957920000000     0.178340000000     0.501480000000    -0.112253   
N48      N      0.960010000000     0.104760000000     0.491810000000    -0.166199   
O1       O      0.978580000000     0.056580000000     0.460800000000    -0.397962   
O2       O      0.007000000000     0.953570000000     0.455960000000    -0.395758   
O3       O      0.941330000000     0.991640000000     0.450810000000    -0.395728   
O4       O      0.043230000000     0.019500000000     0.465840000000    -0.398291   
O5       O      0.035800000000     0.014540000000     0.523450000000    -0.382028   
O6       O      0.934730000000     0.984610000000     0.508310000000    -0.39768    
O7       O      0.000030000000     0.949120000000     0.513640000000    -0.387823   
O8       O      0.969480000000     0.051180000000     0.518120000000    -0.394513   
O9       O      0.969290000000     0.449480000000     0.519610000000    -0.39745    
O10      O      0.972700000000     0.553960000000     0.497550000000    -0.392137   
O11      O      0.966360000000     0.490310000000     0.456230000000    -0.397476   
O12      O      0.975520000000     0.512040000000     0.559700000000    -0.383777   
O13      O      0.033820000000     0.510400000000     0.554810000000    -0.398699   
O14      O      0.024650000000     0.488020000000     0.451800000000    -0.401538   
O15      O      0.030880000000     0.550840000000     0.491750000000    -0.39797    
O16      O      0.027480000000     0.446460000000     0.514070000000    -0.397772   
O17      O      0.536310000000     0.965290000000     0.485410000000    -0.393621   
O18      O      0.432200000000     0.979090000000     0.503800000000    -0.395987   
O19      O      0.474890000000     0.976040000000     0.441810000000    -0.398656   
O20      O      0.492640000000     0.968460000000     0.546150000000    -0.399585   
O21      O      0.501580000000     0.026460000000     0.548870000000    -0.388039   
O22      O      0.483970000000     0.034020000000     0.444400000000    -0.385731   
O23      O      0.440290000000     0.037270000000     0.505380000000    -0.390977   
O24      O      0.544330000000     0.023490000000     0.487160000000    -0.391832   
O25      O      0.514850000000     0.012240000000     0.049300000000    -0.395076   
O26      O      0.528370000000     0.989730000000     0.946440000000    -0.396018   
O27      O      0.515490000000     0.052090000000     0.986020000000    -0.402117   
O28      O      0.527970000000     0.948870000000     0.009610000000    -0.398857   
O29      O      0.470090000000     0.940890000000     0.006510000000    -0.393567   
O30      O      0.458160000000     0.043550000000     0.978080000000    -0.386347   
O31      O      0.471130000000     0.978740000000     0.941280000000    -0.39131    
O32      O      0.457120000000     0.004800000000     0.043290000000    -0.392936   
O33      O      0.998500000000     0.470240000000     0.056060000000    -0.395134   
O34      O      0.016410000000     0.473910000000     0.951800000000    -0.399836   
O35      O      0.060290000000     0.472770000000     0.013470000000    -0.38946    
O36      O      0.955420000000     0.471500000000     0.995850000000    -0.404586   
O37      O      0.954610000000     0.530270000000     0.996080000000    -0.381917   
O38      O      0.059220000000     0.531500000000     0.014930000000    -0.394378   
O39      O      0.017130000000     0.532650000000     0.953840000000    -0.399899   
O40      O      0.998140000000     0.529000000000     0.058110000000    -0.377884   
O41      O      0.503050000000     0.438520000000     0.006470000000    -0.400012   
O42      O      0.521800000000     0.542250000000     0.023130000000    -0.397249   
O43      O      0.460740000000     0.498190000000     0.024500000000    -0.399534   
O44      O      0.563720000000     0.481280000000     0.004930000000    -0.399603   
O45      O      0.554760000000     0.491660000000     0.948210000000    -0.397103   
O46      O      0.452220000000     0.512050000000     0.968490000000    -0.397227   
O47      O      0.515670000000     0.552800000000     0.966110000000    -0.397261   
O48      O      0.491480000000     0.449650000000     0.950400000000    -0.394354   


