data_structure

_audit_creation_method RASPA-1.0
_audit_creation_date 2023-5-25
_audit_author_name 'Poobodin Mano'

_cell_length_a    38.565
_cell_length_b    38.5984
_cell_length_c    38.5862
_cell_angle_alpha 90
_cell_angle_beta  90
_cell_angle_gamma 90
_cell_volume      57437.4

_symmetry_cell_setting          triclinic
_symmetry_space_group_name_Hall 'P 1'
_symmetry_space_group_name_H-M  'P 1'
_symmetry_Int_Tables_number     1

_symmetry_equiv_pos_as_xyz 'x,y,z'

loop_
_atom_site_label
_atom_site_type_symbol
_atom_site_fract_x
_atom_site_fract_y
_atom_site_fract_z
_atom_site_charge
Br1      Br     0.870640000000     0.547630000000     0.031840000000    -0.236574   
Br2      Br     0.112300000000     0.418440000000     0.037190000000    -0.237225   
Br3      Br     0.460710000000     0.864670000000     0.051790000000    -0.21292    
Br4      Br     0.475220000000     0.108340000000     0.928120000000    -0.242745   
Br5      Br     0.552070000000     0.029840000000     0.609630000000    -0.240338   
Br6      Br     0.527270000000     0.910290000000     0.108090000000    -0.213086   
Br7      Br     0.967780000000     0.569990000000     0.613900000000    -0.240008   
Br8      Br     0.990260000000     0.564600000000     0.361720000000    -0.224917   
Br9      Br     0.123380000000     0.033150000000     0.565840000000    -0.237656   
Br10     Br     0.876150000000     0.069200000000     0.472450000000    -0.239266   
Br11     Br     0.925770000000     0.624540000000     0.441920000000    -0.218372   
Br12     Br     0.996070000000     0.370060000000     0.424880000000    -0.239668   
C1       C      0.926200000000     0.001420000000     0.501440000000     0.41025    
C2       C      0.064270000000     0.998650000000     0.504660000000     0.407183   
C3       C      0.997170000000     0.068230000000     0.508560000000     0.405589   
C4       C      0.994230000000     0.930640000000     0.497360000000     0.399101   
C5       C      0.979580000000     0.429640000000     0.491390000000     0.409892   
C6       C      0.982000000000     0.567530000000     0.485650000000     0.414505   
C7       C      0.974530000000     0.496940000000     0.420410000000     0.415623   
C8       C      0.987150000000     0.501490000000     0.557780000000     0.409548   
C9       C      0.563200000000     0.992840000000     0.497330000000     0.403741   
C10      C      0.425840000000     0.984440000000     0.485400000000     0.400129   
C11      C      0.500790000000     0.983380000000     0.422760000000     0.399684   
C12      C      0.489270000000     0.993820000000     0.559870000000     0.410541   
C13      C      0.498430000000     0.981210000000     0.060240000000     0.41274    
C14      C      0.492440000000     0.992910000000     0.922920000000     0.404178   
C15      C      0.491450000000     0.918160000000     0.987450000000     0.412516   
C16      C      0.499090000000     0.055610000000     0.995200000000     0.41024    
C17      C      0.060320000000     0.478700000000     0.992820000000     0.407382   
C18      C      0.922650000000     0.489300000000     0.987130000000     0.407446   
C19      C      0.988660000000     0.482070000000     0.058450000000     0.403746   
C20      C      0.995170000000     0.486080000000     0.920510000000     0.39861    
C21      C      0.500770000000     0.419050000000     0.984490000000     0.399134   
C22      C      0.480910000000     0.555560000000     0.980730000000     0.400131   
C23      C      0.422990000000     0.476940000000     0.983760000000     0.398814   
C24      C      0.559620000000     0.497750000000     0.981790000000     0.399582   
C25      C      0.828970000000     0.463550000000     0.985010000000    -0.0301924  
C26      C      0.651340000000     0.492750000000     0.009660000000    -0.0303001  
C27      C      0.611880000000     0.516340000000     0.949730000000    -0.00742473 
C28      C      0.613910000000     0.504690000000     0.014610000000    -0.00617936 
C29      C      0.722270000000     0.484230000000     0.961120000000    -0.0535929  
C30      C      0.759690000000     0.525830000000     0.007100000000    -0.05248    
C31      C      0.704630000000     0.509100000000     0.981320000000     0.0615768  
C32      C      0.649960000000     0.505130000000     0.948170000000    -0.0300002  
C33      C      0.777390000000     0.501320000000     0.986970000000     0.0652902  
C34      C      0.833860000000     0.524570000000     0.971810000000    -0.059396   
C35      C      0.758360000000     0.481130000000     0.963140000000    -0.0554966  
C36      C      0.870930000000     0.526670000000     0.985920000000     0.12007    
C37      C      0.866270000000     0.461680000000     0.998390000000    -0.00145014 
C38      C      0.723880000000     0.529990000000     0.003970000000    -0.0509172  
C39      C      0.153310000000     0.505210000000     0.995600000000    -0.0302685  
C40      C      0.331710000000     0.481800000000     0.013640000000    -0.030311   
C41      C      0.370250000000     0.456500000000     0.953770000000    -0.0074328  
C42      C      0.369580000000     0.471150000000     0.018140000000    -0.00620709 
C43      C      0.259540000000     0.486960000000     0.967660000000    -0.0536513  
C44      C      0.224270000000     0.444530000000     0.014590000000    -0.0524314  
C45      C      0.278260000000     0.462630000000     0.987520000000     0.061733   
C46      C      0.331840000000     0.466630000000     0.952770000000    -0.0300443  
C47      C      0.205520000000     0.468510000000     0.994810000000     0.0652143  
C48      C      0.149530000000     0.444900000000     0.978770000000    -0.0593062  
C49      C      0.223440000000     0.489120000000     0.970500000000    -0.0555639  
C50      C      0.112320000000     0.441570000000     0.992350000000     0.119951   
C51      C      0.116010000000     0.505510000000     0.009070000000    -0.00135071 
C52      C      0.260120000000     0.441360000000     0.010720000000    -0.0510751  
C53      C      0.512660000000     0.825620000000     0.967600000000    -0.0300975  
C54      C      0.473430000000     0.645370000000     0.013100000000    -0.0302154  
C55      C      0.477570000000     0.609570000000     0.946690000000    -0.00627676 
C56      C      0.459770000000     0.608350000000     0.010010000000    -0.00683953 
C57      C      0.455780000000     0.721950000000     0.960300000000    -0.0517997  
C58      C      0.504800000000     0.751180000000     0.004810000000    -0.0501714  
C59      C      0.476120000000     0.700250000000     0.981150000000     0.0625743  
C60      C      0.491190000000     0.646340000000     0.952700000000    -0.0304408  
C61      C      0.483320000000     0.772930000000     0.985200000000     0.065783   
C62      C      0.453350000000     0.829030000000     0.987480000000    -0.0579449  
C63      C      0.459730000000     0.757910000000     0.961680000000    -0.0549288  
C64      C      0.458000000000     0.865800000000     0.001460000000     0.117384   
C65      C      0.521120000000     0.862060000000     0.980870000000    -0.00146713 
C66      C      0.501860000000     0.715190000000     0.002350000000    -0.0534738  
C67      C      0.530010000000     0.146220000000     0.010770000000    -0.0309958  
C68      C      0.505140000000     0.326500000000     0.954750000000    -0.0299788  
C69      C      0.508760000000     0.366240000000     0.019090000000    -0.00597444 
C70      C      0.491700000000     0.363710000000     0.954800000000    -0.00694595 
C71      C      0.483770000000     0.255030000000     0.013490000000    -0.0518066  
C72      C      0.528590000000     0.219600000000     0.969060000000    -0.0506297  
C73      C      0.504690000000     0.273870000000     0.990530000000     0.0624342  
C74      C      0.522240000000     0.329180000000     0.014880000000    -0.0301794  
C75      C      0.506210000000     0.200760000000     0.990590000000     0.0648427  
C76      C      0.470730000000     0.148080000000     0.990390000000    -0.0588445  
C77      C      0.484960000000     0.218860000000     0.014150000000    -0.0549037  
C78      C      0.471560000000     0.110350000000     0.978420000000     0.118777   
C79      C      0.534540000000     0.108450000000     0.999390000000    -0.000482836
C80      C      0.528450000000     0.255810000000     0.969440000000    -0.0541374  
C81      C      0.472830000000     0.972380000000     0.653010000000    -0.0314657  
C82      C      0.522940000000     0.004450000000     0.832310000000    -0.0282095  
C83      C      0.457700000000     0.995090000000     0.869360000000    -0.00687697 
C84      C      0.520450000000     0.015350000000     0.870250000000    -0.00870951 
C85      C      0.468460000000     0.026120000000     0.758280000000    -0.0516851  
C86      C      0.512320000000     0.979110000000     0.725090000000    -0.0502837  
C87      C      0.489780000000     0.004470000000     0.778220000000     0.0639354  
C88      C      0.463310000000     0.984490000000     0.831520000000    -0.029187   
C89      C      0.491920000000     0.001560000000     0.705100000000     0.065118   
C90      C      0.489540000000     0.032540000000     0.649230000000    -0.0585559  
C91      C      0.468920000000     0.024310000000     0.722100000000    -0.0537513  
C92      C      0.501610000000     0.028910000000     0.611550000000     0.11847    
C93      C      0.485070000000     0.964650000000     0.616170000000     4.64147e-05
C94      C      0.510780000000     0.979890000000     0.761220000000    -0.054769   
C95      C      0.476310000000     0.990930000000     0.153750000000    -0.0300608  
C96      C      0.510030000000     0.944350000000     0.334530000000    -0.0300993  
C97      C      0.500920000000     0.012440000000     0.366100000000    -0.00612768 
C98      C      0.520900000000     0.949690000000     0.372320000000    -0.0072825  
C99      C      0.530460000000     0.995840000000     0.257200000000    -0.0518475  
C100     C      0.485120000000     0.948960000000     0.225850000000    -0.0505301  
C101     C      0.510380000000     0.973860000000     0.278030000000     0.0626432  
C102     C      0.489820000000     0.003470000000     0.329200000000    -0.0300684  
C103     C      0.505800000000     0.970390000000     0.205050000000     0.0657482  
C104     C      0.535700000000     0.971330000000     0.148940000000    -0.0578331  
C105     C      0.527770000000     0.994730000000     0.221130000000    -0.055168   
C106     C      0.531000000000     0.960460000000     0.111090000000     0.117196   
C107     C      0.468030000000     0.980520000000     0.116380000000    -0.00151146 
C108     C      0.486780000000     0.951050000000     0.261970000000    -0.0536652  
C109     C      0.020690000000     0.484690000000     0.646510000000    -0.0309653  
C110     C      0.998270000000     0.456790000000     0.827940000000    -0.0300649  
C111     C      0.999600000000     0.521190000000     0.867570000000    -0.00630174 
C112     C      0.009200000000     0.455740000000     0.866090000000    -0.00738016 
C113     C      0.027160000000     0.514530000000     0.757520000000    -0.052259   
C114     C      0.976490000000     0.478520000000     0.720370000000    -0.0544068  
C115     C      0.004390000000     0.492520000000     0.775330000000     0.0621595  
C116     C      0.987850000000     0.518520000000     0.829860000000    -0.0302716  
C117     C      0.998730000000     0.501610000000     0.702780000000     0.0646352  
C118     C      0.961830000000     0.506100000000     0.650890000000    -0.0582753  
C119     C      0.024130000000     0.519310000000     0.721790000000    -0.0510255  
C120     C      0.962220000000     0.519880000000     0.613650000000     0.118397   
C121     C      0.024610000000     0.498210000000     0.609420000000    -0.000615655
C122     C      0.978580000000     0.474850000000     0.756380000000    -0.0538358  
C123     C      0.944150000000     0.475260000000     0.331560000000    -0.0310321  
C124     C      0.986970000000     0.514130000000     0.149250000000    -0.0301048  
C125     C      0.979840000000     0.448620000000     0.112230000000    -0.00574636 
C126     C      0.003790000000     0.510110000000     0.113680000000    -0.00593156 
C127     C      0.994900000000     0.460390000000     0.226340000000    -0.0504594  
C128     C      0.949360000000     0.510200000000     0.252590000000    -0.04939    
C129     C      0.977290000000     0.482310000000     0.203350000000     0.0637627  
C130     C      0.963620000000     0.455820000000     0.147800000000    -0.0300508  
C131     C      0.968910000000     0.490000000000     0.275580000000     0.0661549  
C132     C      0.002130000000     0.499540000000     0.328440000000    -0.0586336  
C133     C      0.990310000000     0.463640000000     0.262120000000    -0.0542504  
C134     C      0.999440000000     0.515100000000     0.364720000000     0.118604   
C135     C      0.938340000000     0.490130000000     0.368020000000     0.000942871
C136     C      0.952900000000     0.506000000000     0.216770000000    -0.0530028  
C137     C      0.154390000000     0.000710000000     0.471420000000    -0.0299268  
C138     C      0.336360000000     0.956520000000     0.504240000000    -0.030533   
C139     C      0.371310000000     0.011060000000     0.465230000000    -0.00696552 
C140     C      0.372180000000     0.949590000000     0.488430000000    -0.00626878 
C141     C      0.257690000000     0.963080000000     0.472960000000    -0.0520599  
C142     C      0.232860000000     0.010610000000     0.521590000000    -0.051896   
C143     C      0.281240000000     0.983800000000     0.491260000000     0.0618551  
C144     C      0.335510000000     0.015280000000     0.481530000000    -0.0299691  
C145     C      0.209260000000     0.991580000000     0.501610000000     0.0649246  
C146     C      0.154750000000     0.976550000000     0.529480000000    -0.0589864  
C147     C      0.222030000000     0.966330000000     0.478510000000    -0.055894   
C148     C      0.118740000000     0.991590000000     0.537630000000     0.119768   
C149     C      0.118560000000     0.016590000000     0.476460000000    -0.00143648 
C150     C      0.268550000000     0.006350000000     0.517060000000    -0.053493   
C151     C      0.833990000000     0.988350000000     0.527420000000    -0.0312842  
C152     C      0.655780000000     0.965940000000     0.506980000000    -0.0287299  
C153     C      0.615580000000     0.029180000000     0.496690000000    -0.00684302 
C154     C      0.617680000000     0.966650000000     0.518080000000    -0.00803303 
C155     C      0.725970000000     0.026260000000     0.527150000000    -0.0521002  
C156     C      0.762990000000     0.984360000000     0.481070000000    -0.0542797  
C157     C      0.708030000000     0.002390000000     0.506530000000     0.0637139  
C158     C      0.653380000000     0.024870000000     0.485630000000    -0.029207   
C159     C      0.780840000000     0.008710000000     0.501650000000     0.065234   
C160     C      0.835070000000     0.007730000000     0.467890000000    -0.058211   
C161     C      0.761900000000     0.029590000000     0.524530000000    -0.05038    
C162     C      0.873210000000     0.018900000000     0.470270000000     0.118461   
C163     C      0.871410000000     0.999550000000     0.533750000000    -0.000325865
C164     C      0.726820000000     0.981950000000     0.482740000000    -0.0541976  
C165     C      0.017860000000     0.656820000000     0.479420000000    -0.0289859  
C166     C      0.977030000000     0.837620000000     0.517290000000    -0.0303598  
C167     C      0.008300000000     0.879200000000     0.462380000000    -0.00713901 
C168     C      0.990550000000     0.873840000000     0.525970000000    -0.00615425 
C169     C      0.013100000000     0.763610000000     0.508380000000    -0.0506232  
C170     C      0.967400000000     0.734530000000     0.460390000000    -0.0514114  
C171     C      0.993750000000     0.785470000000     0.486740000000     0.0620363  
C172     C      0.994950000000     0.842200000000     0.457430000000    -0.030197   
C173     C      0.987710000000     0.712700000000     0.481150000000     0.0666959  
C174     C      0.958080000000     0.660040000000     0.498490000000    -0.0590473  
C175     C      0.009650000000     0.727640000000     0.506250000000    -0.0554366  
C176     C      0.950350000000     0.623080000000     0.485970000000     0.120387   
C177     C      0.013490000000     0.619640000000     0.466600000000    -0.00197702 
C178     C      0.969780000000     0.770550000000     0.463520000000    -0.0522229  
C179     C      0.955870000000     0.339940000000     0.517470000000    -0.0307692  
C180     C      0.000370000000     0.159290000000     0.479510000000    -0.0302774  
C181     C      0.992560000000     0.121180000000     0.544320000000    -0.00468728 
C182     C      0.016450000000     0.123390000000     0.483070000000    -0.00522572 
C183     C      0.011120000000     0.236470000000     0.530270000000    -0.0520199  
C184     C      0.960070000000     0.261230000000     0.485260000000    -0.0491013  
C185     C      0.990900000000     0.212880000000     0.511490000000     0.0640384  
C186     C      0.977210000000     0.157370000000     0.538050000000    -0.0306791  
C187     C      0.981890000000     0.284800000000     0.502200000000     0.0646195  
C188     C      0.012450000000     0.339080000000     0.490110000000    -0.0585328  
C189     C      0.006300000000     0.272150000000     0.526270000000    -0.0540927  
C190     C      0.007130000000     0.374830000000     0.473860000000     0.118564   
C191     C      0.947260000000     0.375520000000     0.502040000000    -0.000729879
C192     C      0.963980000000     0.225580000000     0.490310000000    -0.0542778  
Cu1      Cu     0.994230000000     0.996690000000     0.534890000000     0.84952    
Cu2      Cu     0.996240000000     0.002230000000     0.471150000000     0.851972   
Cu3      Cu     0.948910000000     0.499230000000     0.492180000000     0.8524     
Cu4      Cu     0.012580000000     0.497980000000     0.486030000000     0.857375   
Cu5      Cu     0.496200000000     0.956730000000     0.494100000000     0.842542   
Cu6      Cu     0.492860000000     0.020360000000     0.488490000000     0.852987   
Cu7      Cu     0.463500000000     0.988490000000     0.993000000000     0.855551   
Cu8      Cu     0.527260000000     0.985290000000     0.990100000000     0.848938   
Cu9      Cu     0.993970000000     0.515890000000     0.990500000000     0.853696   
Cu10     Cu     0.989050000000     0.452130000000     0.988440000000     0.847082   
Cu11     Cu     0.491620000000     0.488250000000     0.014630000000     0.846848   
Cu12     Cu     0.490990000000     0.486490000000     0.950650000000     0.840968   
H1       H      0.710840000000     0.549040000000     0.019940000000     0.0479657  
H2       H      0.813310000000     0.443590000000     0.998730000000     0.0378446  
H3       H      0.821480000000     0.550510000000     0.974400000000     0.0580026  
H4       H      0.610820000000     0.545130000000     0.949470000000     0.0389272  
H5       H      0.865640000000     0.460530000000     0.027180000000     0.050254   
H6       H      0.665400000000     0.497190000000     0.034470000000     0.0368672  
H7       H      0.662940000000     0.519450000000     0.926760000000     0.0362503  
H8       H      0.601600000000     0.487950000000     0.034590000000     0.0418576  
H9       H      0.886090000000     0.544140000000     0.968690000000     0.0278616  
H10      H      0.773820000000     0.541830000000     0.025330000000     0.0585645  
H11      H      0.878010000000     0.437020000000     0.989200000000     0.0420155  
H12      H      0.708510000000     0.467200000000     0.943670000000     0.0414355  
H13      H      0.829030000000     0.457350000000     0.956820000000     0.0370247  
H14      H      0.598540000000     0.507070000000     0.925940000000     0.0423143  
H15      H      0.652030000000     0.464450000000     0.003980000000     0.0404775  
H16      H      0.650810000000     0.476930000000     0.942190000000     0.0381251  
H17      H      0.770980000000     0.462370000000     0.946610000000     0.0418794  
H18      H      0.834400000000     0.518060000000     0.943680000000     0.0458779  
H19      H      0.614010000000     0.531710000000     0.024630000000     0.0410461  
H20      H      0.274030000000     0.422750000000     0.026460000000     0.0479569  
H21      H      0.168630000000     0.524560000000     0.010540000000     0.0384153  
H22      H      0.162270000000     0.419040000000     0.980200000000     0.0580985  
H23      H      0.372120000000     0.427770000000     0.954570000000     0.0391649  
H24      H      0.116650000000     0.504030000000     0.037850000000     0.0510405  
H25      H      0.318390000000     0.478140000000     0.038980000000     0.036939   
H26      H      0.318690000000     0.451020000000     0.932400000000     0.0364377  
H27      H      0.381950000000     0.489280000000     0.036830000000     0.0417856  
H28      H      0.097670000000     0.424740000000     0.974090000000     0.0279702  
H29      H      0.210950000000     0.428180000000     0.033110000000     0.0581689  
H30      H      0.104010000000     0.530770000000     0.002140000000     0.0425503  
H31      H      0.272490000000     0.504290000000     0.949870000000     0.0415267  
H32      H      0.153020000000     0.513160000000     0.967870000000     0.03746    
H33      H      0.382710000000     0.465210000000     0.929290000000     0.0422969  
H34      H      0.330060000000     0.509770000000     0.006660000000     0.040454   
H35      H      0.330050000000     0.494490000000     0.945560000000     0.0380175  
H36      H      0.209920000000     0.507420000000     0.954160000000     0.0420259  
H37      H      0.149140000000     0.452830000000     0.951010000000     0.0457072  
H38      H      0.370520000000     0.444740000000     0.029620000000     0.0409533  
H39      H      0.519140000000     0.699370000000     0.017700000000     0.0442589  
H40      H      0.536960000000     0.810050000000     0.968090000000     0.0380394  
H41      H      0.432670000000     0.815660000000     0.002540000000     0.0603431  
H42      H      0.451380000000     0.611200000000     0.934730000000     0.0398918  
H43      H      0.535960000000     0.859760000000     0.005480000000     0.0587334  
H44      H      0.458130000000     0.659160000000     0.033300000000     0.0387978  
H45      H      0.489330000000     0.660800000000     0.927810000000     0.0354997  
H46      H      0.465050000000     0.594450000000     0.034690000000     0.0432183  
H47      H      0.434270000000     0.880760000000     0.994790000000     0.0304386  
H48      H      0.523760000000     0.762270000000     0.022300000000     0.0538412  
H49      H      0.538240000000     0.875090000000     0.961670000000     0.0416517  
H50      H      0.436610000000     0.710870000000     0.943030000000     0.0457634  
H51      H      0.503480000000     0.826910000000     0.940250000000     0.038348   
H52      H      0.495050000000     0.596270000000     0.928030000000     0.041036   
H53      H      0.500970000000     0.644110000000     0.021630000000     0.0400335  
H54      H      0.518990000000     0.645430000000     0.960510000000     0.0403146  
H55      H      0.443630000000     0.773720000000     0.945070000000     0.0425936  
H56      H      0.444530000000     0.830820000000     0.960050000000     0.0433299  
H57      H      0.431140000000     0.609420000000     0.006690000000     0.0388559  
H58      H      0.546050000000     0.269380000000     0.952380000000     0.0430085  
H59      H      0.555820000000     0.159100000000     0.009670000000     0.0370661  
H60      H      0.451740000000     0.162730000000     0.974340000000     0.0602514  
H61      H      0.483650000000     0.365440000000     0.033250000000     0.0416626  
H62      H      0.549430000000     0.107910000000     0.974720000000     0.0514488  
H63      H      0.490310000000     0.311470000000     0.935100000000     0.0379249  
H64      H      0.520700000000     0.316100000000     0.040550000000     0.0354386  
H65      H      0.499960000000     0.376390000000     0.930270000000     0.0424272  
H66      H      0.446270000000     0.098370000000     0.985370000000     0.0300507  
H67      H      0.545840000000     0.206090000000     0.951500000000     0.0510586  
H68      H      0.550210000000     0.094600000000     0.019250000000     0.0395396  
H69      H      0.466090000000     0.268500000000     0.030640000000     0.0461087  
H70      H      0.520650000000     0.147290000000     0.038070000000     0.0385417  
H71      H      0.527370000000     0.381060000000     0.035400000000     0.0400454  
H72      H      0.532940000000     0.326770000000     0.946950000000     0.0378256  
H73      H      0.549940000000     0.329500000000     0.006710000000     0.0391311  
H74      H      0.468380000000     0.205290000000     0.032200000000     0.0427061  
H75      H      0.461500000000     0.148660000000     0.017730000000     0.0439882  
H76      H      0.462860000000     0.363090000000     0.954690000000     0.0398625  
H77      H      0.526510000000     0.961720000000     0.775600000000     0.0432194  
H78      H      0.474950000000     0.948060000000     0.668390000000     0.0364418  
H79      H      0.504310000000     0.053780000000     0.661990000000     0.0608084  
H80      H      0.444130000000     0.020510000000     0.869990000000     0.0503485  
H81      H      0.510510000000     0.951120000000     0.617460000000     0.0507427  
H82      H      0.542250000000     0.021350000000     0.819130000000     0.0399206  
H83      H      0.437970000000     0.986330000000     0.817810000000     0.0368926  
H84      H      0.545610000000     0.009600000000     0.883100000000     0.0465188  
H85      H      0.492320000000     0.051970000000     0.596950000000     0.0296028  
H86      H      0.529430000000     0.960770000000     0.712480000000     0.0500887  
H87      H      0.466280000000     0.946560000000     0.603850000000     0.0388824  
H88      H      0.451410000000     0.044480000000     0.770930000000     0.0495214  
H89      H      0.445070000000     0.980370000000     0.652830000000     0.038843   
H90      H      0.440520000000     0.975650000000     0.881950000000     0.0428409  
H91      H      0.532440000000     0.977240000000     0.831400000000     0.0386966  
H92      H      0.472250000000     0.957070000000     0.830200000000     0.0394216  
H93      H      0.451800000000     0.041190000000     0.707700000000     0.0436114  
H94      H      0.461640000000     0.039990000000     0.649180000000     0.0439591  
H95      H      0.516600000000     0.043880000000     0.871360000000     0.0534793  
H96      H      0.469810000000     0.934640000000     0.277050000000     0.0438871  
H97      H      0.451950000000     0.989120000000     0.169150000000     0.0381798  
H98      H      0.556250000000     0.955110000000     0.161080000000     0.0603755  
H99      H      0.526160000000     0.026350000000     0.365120000000     0.0409173  
H100     H      0.453810000000     0.955460000000     0.116650000000     0.0596853  
H101     H      0.526970000000     0.924140000000     0.322840000000     0.0383885  
H102     H      0.491030000000     0.027580000000     0.313390000000     0.0355683  
H103     H      0.514170000000     0.926000000000     0.387280000000     0.0430359  
H104     H      0.554930000000     0.967840000000     0.096810000000     0.0308089  
H105     H      0.467370000000     0.930770000000     0.213920000000     0.0538315  
H106     H      0.450420000000     0.000350000000     0.105060000000     0.0426172  
H107     H      0.547960000000     0.014270000000     0.269110000000     0.0461948  
H108     H      0.485370000000     0.018330000000     0.154590000000     0.0386072  
H109     H      0.481400000000     0.030450000000     0.377310000000     0.0414203  
H110     H      0.482800000000     0.934790000000     0.334200000000     0.0388557  
H111     H      0.462500000000     0.994070000000     0.329050000000     0.039849   
H112     H      0.543140000000     0.012680000000     0.206090000000     0.0428222  
H113     H      0.544710000000     0.998730000000     0.149290000000     0.0435457  
H114     H      0.549570000000     0.952570000000     0.373310000000     0.0397439  
H115     H      0.960090000000     0.458070000000     0.769070000000     0.0418939  
H116     H      0.046820000000     0.484560000000     0.658770000000     0.0372925  
H117     H      0.943600000000     0.521900000000     0.666720000000     0.0596483  
H118     H      0.026650000000     0.531150000000     0.868230000000     0.041401   
H119     H      0.039190000000     0.523050000000     0.610060000000     0.0525886  
H120     H      0.011930000000     0.435640000000     0.813860000000     0.0363164  
H121     H      0.993070000000     0.543870000000     0.817110000000     0.0375627  
H122     H      0.998330000000     0.431910000000     0.878100000000     0.0431387  
H123     H      0.936410000000     0.514490000000     0.601990000000     0.0310307  
H124     H      0.957000000000     0.463790000000     0.706670000000     0.0422708  
H125     H      0.040320000000     0.479280000000     0.594380000000     0.0405668  
H126     H      0.046940000000     0.528610000000     0.771620000000     0.0469491  
H127     H      0.010860000000     0.457550000000     0.646160000000     0.0391231  
H128     H      0.982860000000     0.540470000000     0.880990000000     0.0425251  
H129     H      0.969860000000     0.451890000000     0.826520000000     0.0380462  
H130     H      0.959390000000     0.513650000000     0.828650000000     0.0409029  
H131     H      0.041700000000     0.536880000000     0.708740000000     0.05105    
H132     H      0.951890000000     0.479020000000     0.650290000000     0.0438331  
H133     H      0.037930000000     0.453570000000     0.867360000000     0.0395264  
H134     H      0.937660000000     0.522320000000     0.199840000000     0.0469957  
H135     H      0.918580000000     0.473600000000     0.318280000000     0.0414099  
H136     H      0.020130000000     0.515560000000     0.312560000000     0.0614598  
H137     H      0.004060000000     0.433420000000     0.115960000000     0.0477605  
H138     H      0.922690000000     0.514230000000     0.365860000000     0.0592592  
H139     H      0.002610000000     0.532820000000     0.164700000000     0.0408582  
H140     H      0.961710000000     0.430830000000     0.162090000000     0.0386089  
H141     H      0.001600000000     0.535170000000     0.099640000000     0.047864   
H142     H      0.025170000000     0.512290000000     0.377390000000     0.0332156  
H143     H      0.932030000000     0.529920000000     0.262520000000     0.0555177  
H144     H      0.923100000000     0.471170000000     0.383500000000     0.046673   
H145     H      0.012940000000     0.441280000000     0.216460000000     0.0496429  
H146     H      0.955040000000     0.448600000000     0.333470000000     0.0468371  
H147     H      0.961580000000     0.432440000000     0.096870000000     0.0446958  
H148     H      0.960500000000     0.525060000000     0.145640000000     0.0446712  
H149     H      0.936930000000     0.466360000000     0.144560000000     0.0442072  
H150     H      0.004650000000     0.446570000000     0.279100000000     0.0470056  
H151     H      0.013570000000     0.473170000000     0.330870000000     0.0498789  
H152     H      0.031890000000     0.504810000000     0.117360000000     0.0440181  
H153     H      0.285960000000     0.021620000000     0.532830000000     0.0438179  
H154     H      0.169060000000     0.016960000000     0.452640000000     0.0386209  
H155     H      0.169780000000     0.974350000000     0.554020000000     0.0583202  
H156     H      0.367930000000     0.005020000000     0.437260000000     0.03847    
H157     H      0.121710000000     0.044630000000     0.482280000000     0.050986   
H158     H      0.322000000000     0.931540000000     0.505390000000     0.0361012  
H159     H      0.320380000000     0.034100000000     0.465750000000     0.0373695  
H160     H      0.387020000000     0.932530000000     0.506320000000     0.0410206  
H161     H      0.104230000000     0.972240000000     0.553330000000     0.0278013  
H162     H      0.223470000000     0.029360000000     0.540250000000     0.0566858  
H163     H      0.104170000000     0.014650000000     0.451570000000     0.0426904  
H164     H      0.267050000000     0.944800000000     0.453830000000     0.0458976  
H165     H      0.151140000000     0.974360000000     0.460140000000     0.0380309  
H166     H      0.385310000000     0.036170000000     0.466970000000     0.0430499  
H167     H      0.339270000000     0.966500000000     0.531180000000     0.0403645  
H168     H      0.338880000000     0.026110000000     0.508050000000     0.0398944  
H169     H      0.204630000000     0.950060000000     0.463750000000     0.0426739  
H170     H      0.151930000000     0.949980000000     0.518560000000     0.0454673  
H171     H      0.368750000000     0.935510000000     0.463520000000     0.0402249  
H172     H      0.713840000000     0.963810000000     0.465800000000     0.0426227  
H173     H      0.819910000000     0.989740000000     0.552580000000     0.0381517  
H174     H      0.821560000000     0.023760000000     0.448070000000     0.0601637  
H175     H      0.614760000000     0.043640000000     0.521610000000     0.0512041  
H176     H      0.871350000000     0.024600000000     0.548010000000     0.0519417  
H177     H      0.670070000000     0.947740000000     0.524200000000     0.0378043  
H178     H      0.665960000000     0.050830000000     0.486400000000     0.0386287  
H179     H      0.605900000000     0.941040000000     0.512130000000     0.0445592  
H180     H      0.886410000000     0.010860000000     0.445930000000     0.030005   
H181     H      0.776720000000     0.967320000000     0.463580000000     0.0428809  
H182     H      0.884010000000     0.979950000000     0.550740000000     0.0408726  
H183     H      0.711930000000     0.042500000000     0.545230000000     0.0506971  
H184     H      0.833240000000     0.960970000000     0.518310000000     0.0395221  
H185     H      0.602060000000     0.045150000000     0.476850000000     0.0438636  
H186     H      0.657200000000     0.955960000000     0.479950000000     0.0380325  
H187     H      0.654720000000     0.015100000000     0.458500000000     0.0404883  
H188     H      0.775210000000     0.048160000000     0.540840000000     0.0525059  
H189     H      0.834240000000     0.980280000000     0.459050000000     0.0438688  
H190     H      0.616520000000     0.970150000000     0.546660000000     0.0496322  
H191     H      0.953370000000     0.786400000000     0.447280000000     0.0446367  
H192     H      0.038220000000     0.669670000000     0.463510000000     0.0412738  
H193     H      0.933710000000     0.675490000000     0.497490000000     0.0604986  
H194     H      0.037090000000     0.878480000000     0.463720000000     0.0396862  
H195     H      0.010500000000     0.620100000000     0.437940000000     0.063711   
H196     H      0.978330000000     0.821630000000     0.541280000000     0.0370151  
H197     H      0.010210000000     0.829680000000     0.436390000000     0.038157   
H198     H      0.972280000000     0.886210000000     0.544540000000     0.0419495  
H199     H      0.932730000000     0.610660000000     0.505120000000     0.0349821  
H200     H      0.949640000000     0.723500000000     0.441650000000     0.0593745  
H201     H      0.037710000000     0.605120000000     0.472380000000     0.0477745  
H202     H      0.030910000000     0.774610000000     0.527090000000     0.0466268  
H203     H      0.026850000000     0.655910000000     0.506810000000     0.0415054  
H204     H      0.001250000000     0.894670000000     0.439110000000     0.0434715  
H205     H      0.949380000000     0.839040000000     0.509020000000     0.0408726  
H206     H      0.967320000000     0.843510000000     0.449150000000     0.0393001  
H207     H      0.024700000000     0.711780000000     0.523760000000     0.0451733  
H208     H      0.966820000000     0.659370000000     0.526010000000     0.0531537  
H209     H      0.016060000000     0.871340000000     0.539200000000     0.0419978  
H210     H      0.946910000000     0.208110000000     0.476570000000     0.047863   
H211     H      0.931160000000     0.325450000000     0.521050000000     0.0383488  
H212     H      0.030370000000     0.323680000000     0.473540000000     0.0604788  
H213     H      0.017230000000     0.123970000000     0.558980000000     0.046229   
H214     H      0.930310000000     0.371810000000     0.479020000000     0.0535774  
H215     H      0.016370000000     0.174670000000     0.461070000000     0.0403322  
H216     H      0.976040000000     0.171230000000     0.563320000000     0.0387161  
H217     H      0.014780000000     0.110010000000     0.457610000000     0.0468089  
H218     H      0.032200000000     0.388980000000     0.475320000000     0.0306794  
H219     H      0.940440000000     0.270550000000     0.467490000000     0.0532272  
H220     H      0.932310000000     0.390620000000     0.521520000000     0.0409922  
H221     H      0.031260000000     0.227130000000     0.547460000000     0.0482878  
H222     H      0.968230000000     0.343140000000     0.543380000000     0.038986   
H223     H      0.974230000000     0.106000000000     0.560600000000     0.0462285  
H224     H      0.973890000000     0.156340000000     0.468430000000     0.0462674  
H225     H      0.950300000000     0.154980000000     0.527830000000     0.0473216  
H226     H      0.022570000000     0.289580000000     0.540980000000     0.0430445  
H227     H      0.025070000000     0.342700000000     0.515800000000     0.0443411  
H228     H      0.044430000000     0.126480000000     0.489300000000     0.0426535  
N1       N      0.887260000000     0.492050000000     0.987940000000    -0.173958   
N2       N      0.814570000000     0.498270000000     0.991370000000    -0.100328   
N3       N      0.667220000000     0.512670000000     0.981380000000    -0.112362   
N4       N      0.594580000000     0.503880000000     0.981590000000    -0.166949   
N5       N      0.095590000000     0.475870000000     0.995820000000    -0.173978   
N6       N      0.168350000000     0.470420000000     0.999770000000    -0.100446   
N7       N      0.315720000000     0.460130000000     0.986760000000    -0.112378   
N8       N      0.388060000000     0.470650000000     0.984620000000    -0.166833   
N9       N      0.489520000000     0.882740000000     0.987510000000    -0.172551   
N10      N      0.486270000000     0.809980000000     0.990050000000    -0.0999349  
N11      N      0.470180000000     0.663270000000     0.979530000000    -0.112656   
N12      N      0.474850000000     0.590450000000     0.979720000000    -0.167278   
N13      N      0.500880000000     0.090980000000     0.993840000000    -0.174706   
N14      N      0.505510000000     0.163440000000     0.987350000000    -0.100701   
N15      N      0.500710000000     0.311130000000     0.989330000000    -0.112214   
N16      N      0.503270000000     0.383700000000     0.985420000000    -0.166798   
N17      N      0.489150000000     0.996480000000     0.595230000000    -0.174576   
N18      N      0.494800000000     0.999640000000     0.667760000000    -0.100751   
N19      N      0.488790000000     0.007800000000     0.815550000000    -0.111326   
N20      N      0.490990000000     0.998430000000     0.887950000000    -0.164034   
N21      N      0.499810000000     0.976400000000     0.095370000000    -0.172376   
N22      N      0.502750000000     0.967470000000     0.167790000000    -0.10006    
N23      N      0.513370000000     0.977100000000     0.315260000000    -0.112486   
N24      N      0.505050000000     0.981050000000     0.387630000000    -0.166925   
N25      N      0.990550000000     0.504300000000     0.592990000000    -0.174052   
N26      N      0.996970000000     0.507410000000     0.665730000000    -0.100665   
N27      N      0.007180000000     0.490620000000     0.812730000000    -0.112438   
N28      N      0.998590000000     0.487230000000     0.885210000000    -0.166542   
N29      N      0.971580000000     0.498450000000     0.385120000000    -0.171325   
N30      N      0.967640000000     0.498070000000     0.312160000000    -0.0996737  
N31      N      0.985620000000     0.480300000000     0.166830000000    -0.111351   
N32      N      0.988470000000     0.481110000000     0.093900000000    -0.163905   
N33      N      0.099700000000     0.000150000000     0.505500000000    -0.174062   
N34      N      0.172720000000     0.999300000000     0.504840000000    -0.100879   
N35      N      0.317640000000     0.981560000000     0.482530000000    -0.112818   
N36      N      0.390650000000     0.982380000000     0.481600000000    -0.167213   
N37      N      0.890800000000     0.004090000000     0.501000000000    -0.174087   
N38      N      0.818220000000     0.011650000000     0.501880000000    -0.100767   
N39      N      0.670680000000     0.000940000000     0.509560000000    -0.11139    
N40      N      0.598350000000     0.995340000000     0.501580000000    -0.164065   
N41      N      0.982580000000     0.602780000000     0.481800000000    -0.170394   
N42      N      0.984790000000     0.675620000000     0.476320000000    -0.0995791  
N43      N      0.998670000000     0.822540000000     0.489910000000    -0.112132   
N44      N      0.995090000000     0.895290000000     0.494570000000    -0.166533   
N45      N      0.978910000000     0.394190000000     0.491180000000    -0.174189   
N46      N      0.978920000000     0.321200000000     0.493730000000    -0.100455   
N47      N      0.999300000000     0.176420000000     0.513590000000    -0.111731   
N48      N      0.999860000000     0.103460000000     0.511230000000    -0.16384    
O1       O      0.941960000000     0.997920000000     0.530520000000    -0.398078   
O2       O      0.047050000000     0.995560000000     0.533010000000    -0.386187   
O3       O      0.995050000000     0.049550000000     0.536050000000    -0.389438   
O4       O      0.993010000000     0.944690000000     0.527480000000    -0.397701   
O5       O      0.995610000000     0.949500000000     0.469970000000    -0.397876   
O6       O      0.997810000000     0.054080000000     0.478510000000    -0.393883   
O7       O      0.048470000000     0.001480000000     0.475550000000    -0.400647   
O8       O      0.943460000000     0.003590000000     0.473040000000    -0.390472   
O9       O      0.951320000000     0.446690000000     0.495740000000    -0.395692   
O10      O      0.952850000000     0.551670000000     0.488500000000    -0.380837   
O11      O      0.947200000000     0.495490000000     0.439410000000    -0.387238   
O12      O      0.956920000000     0.503100000000     0.543970000000    -0.393065   
O13      O      0.014270000000     0.498180000000     0.538750000000    -0.397538   
O14      O      0.004710000000     0.498400000000     0.434270000000    -0.39255    
O15      O      0.010550000000     0.550460000000     0.485190000000    -0.394362   
O16      O      0.008320000000     0.445590000000     0.486280000000    -0.395333   
O17      O      0.548250000000     0.963200000000     0.499640000000    -0.394639   
O18      O      0.443750000000     0.956610000000     0.488860000000    -0.397395   
O19      O      0.502080000000     0.955970000000     0.441610000000    -0.396778   
O20      O      0.490240000000     0.963740000000     0.545760000000    -0.397498   
O21      O      0.490110000000     0.021330000000     0.541140000000    -0.39116    
O22      O      0.496310000000     0.013220000000     0.436690000000    -0.400145   
O23      O      0.440750000000     0.014160000000     0.484930000000    -0.399367   
O24      O      0.545320000000     0.020350000000     0.491860000000    -0.394029   
O25      O      0.469140000000     0.986810000000     0.045400000000    -0.393113   
O26      O      0.464240000000     0.989780000000     0.940340000000    -0.393587   
O27      O      0.463790000000     0.936070000000     0.991950000000    -0.391955   
O28      O      0.469440000000     0.040630000000     0.993490000000    -0.394489   
O29      O      0.527100000000     0.037640000000     0.996230000000    -0.395818   
O30      O      0.521000000000     0.933210000000     0.984280000000    -0.392331   
O31      O      0.521960000000     0.992230000000     0.938260000000    -0.396538   
O32      O      0.526290000000     0.978930000000     0.042220000000    -0.391561   
O33      O      0.046060000000     0.508750000000     0.993060000000    -0.398792   
O34      O      0.941360000000     0.516820000000     0.988040000000    -0.386802   
O35      O      0.991920000000     0.511230000000     0.042820000000    -0.392626   
O36      O      0.995870000000     0.514370000000     0.937990000000    -0.398571   
O37      O      0.992280000000     0.456760000000     0.936000000000    -0.396448   
O38      O      0.986470000000     0.453760000000     0.041100000000    -0.390705   
O39      O      0.936910000000     0.459250000000     0.986760000000    -0.398189   
O40      O      0.041680000000     0.451220000000     0.990650000000    -0.387485   
O41      O      0.499740000000     0.436270000000     0.012950000000    -0.397609   
O42      O      0.483110000000     0.540000000000     0.010060000000    -0.397757   
O43      O      0.439710000000     0.480420000000     0.012310000000    -0.39887    
O44      O      0.543480000000     0.495890000000     0.010810000000    -0.399052   
O45      O      0.543100000000     0.494510000000     0.953070000000    -0.396608   
O46      O      0.438920000000     0.478650000000     0.954570000000    -0.396231   
O47      O      0.483830000000     0.538550000000     0.952310000000    -0.398321   
O48      O      0.497960000000     0.434600000000     0.955220000000    -0.398362   


