data_structure

_audit_creation_method RASPA-1.0
_audit_creation_date 2023-5-25
_audit_author_name 'Poobodin Mano'

_cell_length_a    38.0184
_cell_length_b    37.901
_cell_length_c    38.4063
_cell_angle_alpha 90
_cell_angle_beta  90
_cell_angle_gamma 90
_cell_volume      55341

_symmetry_cell_setting          triclinic
_symmetry_space_group_name_Hall 'P 1'
_symmetry_space_group_name_H-M  'P 1'
_symmetry_Int_Tables_number     1

_symmetry_equiv_pos_as_xyz 'x,y,z'

loop_
_atom_site_label
_atom_site_type_symbol
_atom_site_fract_x
_atom_site_fract_y
_atom_site_fract_z
_atom_site_charge
C1       C      0.989490000000     0.077580000000     0.504420000000     0.404278   
C2       C      0.028180000000     0.943480000000     0.487740000000     0.40742    
C3       C      0.941890000000     0.991880000000     0.492600000000     0.400029   
C4       C      0.076790000000     0.029140000000     0.499430000000     0.405058   
C5       C      0.983840000000     0.444410000000     0.500360000000     0.398345   
C6       C      0.002800000000     0.580290000000     0.469910000000     0.39882    
C7       C      0.990830000000     0.496910000000     0.417790000000     0.406727   
C8       C      0.995320000000     0.528300000000     0.553160000000     0.402715   
C9       C      0.576780000000     0.002360000000     0.495440000000     0.405355   
C10      C      0.438660000000     0.000480000000     0.472390000000     0.400188   
C11      C      0.519690000000     0.997040000000     0.415640000000     0.405302   
C12      C      0.498050000000     0.005420000000     0.552210000000     0.409396   
C13      C      0.514140000000     0.983110000000     0.053110000000     0.402313   
C14      C      0.501440000000     0.985530000000     0.915210000000     0.402178   
C15      C      0.518600000000     0.053990000000     0.983780000000     0.409787   
C16      C      0.497640000000     0.915150000000     0.984650000000     0.410822   
C17      C      0.987540000000     0.505950000000     0.054120000000     0.397302   
C18      C      0.989830000000     0.524410000000     0.916400000000     0.398511   
C19      C      0.057520000000     0.522550000000     0.986890000000     0.407885   
C20      C      0.918180000000     0.507950000000     0.983060000000     0.398917   
C21      C      0.484890000000     0.408990000000     0.037630000000     0.40042    
C22      C      0.480290000000     0.547660000000     0.016640000000     0.399447   
C23      C      0.413830000000     0.477050000000     0.034220000000     0.400204   
C24      C      0.553160000000     0.478410000000     0.019900000000     0.40388    
C25      C      0.647730000000     0.499680000000     0.033250000000    -0.0327173  
C26      C      0.830300000000     0.464530000000     0.981100000000    -0.0302     
C27      C      0.859590000000     0.535350000000     0.987610000000    -0.00664244 
C28      C      0.866660000000     0.472340000000     0.965810000000    -0.0073354  
C29      C      0.760650000000     0.468280000000     0.015580000000    -0.0556485  
C30      C      0.710690000000     0.505070000000     0.976330000000    -0.0555109  
C31      C      0.771850000000     0.490800000000     0.988560000000     0.06158    
C32      C      0.824060000000     0.524280000000     0.002750000000    -0.0300177  
C33      C      0.699440000000     0.480690000000     0.001690000000     0.0623867  
C34      C      0.640680000000     0.470930000000     0.977330000000    -0.074414   
C35      C      0.724780000000     0.462880000000     0.021540000000    -0.0519372  
C36      C      0.604370000000     0.456500000000     0.987000000000     0.169614   
C37      C      0.611870000000     0.486490000000     0.045970000000     0.00193138 
C38      C      0.746530000000     0.509500000000     0.969500000000    -0.053504   
C39      C      0.148720000000     0.492510000000     0.988410000000    -0.0316587  
C40      C      0.326680000000     0.508520000000     0.059650000000    -0.0305428  
C41      C      0.356500000000     0.456920000000     0.011660000000    -0.00659342 
C42      C      0.360460000000     0.488580000000     0.069390000000    -0.00643011 
C43      C      0.264030000000     0.528560000000     0.007510000000    -0.0558222  
C44      C      0.207140000000     0.494720000000     0.039340000000    -0.0560053  
C45      C      0.270190000000     0.500780000000     0.031120000000     0.0614173  
C46      C      0.323070000000     0.477680000000     0.003990000000    -0.029752   
C47      C      0.201000000000     0.519580000000     0.012730000000     0.0616815  
C48      C      0.144000000000     0.547480000000     0.021030000000    -0.0784619  
C49      C      0.229650000000     0.537370000000     0.998000000000    -0.0530591  
C50      C      0.110270000000     0.558010000000     0.001320000000     0.169902   
C51      C      0.115460000000     0.500680000000     0.967830000000     0.00153089 
C52      C      0.241530000000     0.485030000000     0.047930000000    -0.0538443  
C53      C      0.511580000000     0.818490000000     0.970380000000    -0.0328923  
C54      C      0.474710000000     0.642930000000     0.037970000000    -0.0299464  
C55      C      0.478140000000     0.598240000000     0.976240000000    -0.00630587 
C56      C      0.461480000000     0.605010000000     0.039990000000    -0.00724076 
C57      C      0.504260000000     0.711290000000     0.016070000000    -0.0559955  
C58      C      0.455690000000     0.751130000000     0.978030000000    -0.0551049  
C59      C      0.475730000000     0.694280000000     0.999760000000     0.061623   
C60      C      0.491080000000     0.636540000000     0.977210000000    -0.0304708  
C61      C      0.482590000000     0.768390000000     0.996700000000     0.0617528  
C62      C      0.453910000000     0.826780000000     0.995240000000    -0.0781235  
C63      C      0.507080000000     0.747990000000     0.015120000000    -0.0520772  
C64      C      0.461180000000     0.865540000000     0.004550000000     0.168909   
C65      C      0.523050000000     0.856000000000     0.979290000000     0.00197776 
C66      C      0.452020000000     0.714480000000     0.980170000000    -0.0538665  
C67      C      0.552200000000     0.138380000000     0.014980000000    -0.032094   
C68      C      0.482800000000     0.317410000000     0.010800000000    -0.0296969  
C69      C      0.501670000000     0.357110000000     0.073110000000    -0.00618025 
C70      C      0.462520000000     0.350600000000     0.020430000000    -0.00642918 
C71      C      0.534980000000     0.259760000000     0.008380000000    -0.055565   
C72      C      0.504910000000     0.202400000000     0.043130000000    -0.0555826  
C73      C      0.510620000000     0.265720000000     0.035410000000     0.0618155  
C74      C      0.520890000000     0.323320000000     0.061700000000    -0.0308424  
C75      C      0.525530000000     0.196600000000     0.013180000000     0.0617537  
C76      C      0.493190000000     0.146110000000     0.991170000000    -0.0786466  
C77      C      0.541790000000     0.225410000000     0.997010000000    -0.0523344  
C78      C      0.496760000000     0.113290000000     0.968310000000     0.169626   
C79      C      0.558000000000     0.105140000000     0.992840000000     0.00197875 
C80      C      0.497040000000     0.236790000000     0.053670000000    -0.0538559  
C81      C      0.497000000000     0.975320000000     0.644460000000    -0.0317102  
C82      C      0.469100000000     0.012300000000     0.828220000000    -0.0307661  
C83      C      0.525590000000     0.969560000000     0.857820000000    -0.00647562 
C84      C      0.463860000000     0.994910000000     0.863790000000    -0.00515402 
C85      C      0.515590000000     0.023120000000     0.755620000000    -0.0551481  
C86      C      0.466450000000     0.988990000000     0.713200000000    -0.0558833  
C87      C      0.491420000000     0.999310000000     0.770540000000     0.0618611  
C88      C      0.527570000000     0.987360000000     0.822220000000    -0.0300634  
C89      C      0.493320000000     0.009370000000     0.697940000000     0.0624893  
C90      C      0.476560000000     0.035770000000     0.642530000000    -0.078427   
C91      C      0.516890000000     0.027450000000     0.719530000000    -0.0523689  
C92      C      0.490780000000     0.041270000000     0.605370000000     0.169831   
C93      C      0.511730000000     0.977150000000     0.607730000000     0.00143699 
C94      C      0.466070000000     0.983480000000     0.749140000000    -0.0533882  
C95      C      0.515030000000     0.018010000000     0.321930000000    -0.0327015  
C96      C      0.554190000000     0.972790000000     0.141350000000    -0.0293447  
C97      C      0.486150000000     0.989800000000     0.110400000000    -0.00598755 
C98      C      0.546570000000     0.961010000000     0.104050000000    -0.00773176 
C99      C      0.551580000000     0.000670000000     0.213020000000    -0.055869   
C100     C      0.505420000000     0.964080000000     0.256750000000    -0.0554009  
C101     C      0.525910000000     0.978280000000     0.198460000000     0.062245   
C102     C      0.497370000000     0.001040000000     0.146940000000    -0.030061   
C103     C      0.532520000000     0.984690000000     0.271350000000     0.0627548  
C104     C      0.531420000000     0.956500000000     0.328820000000    -0.0743747  
C105     C      0.555180000000     0.003190000000     0.249120000000    -0.0521764  
C106     C      0.543160000000     0.962250000000     0.366510000000     0.16976    
C107     C      0.526570000000     0.026850000000     0.359040000000     0.00223248 
C108     C      0.502720000000     0.960440000000     0.220680000000    -0.0533884  
C109     C      0.023180000000     0.525490000000     0.645420000000    -0.0326022  
C110     C      0.998880000000     0.502430000000     0.822050000000    -0.0295596  
C111     C      0.987370000000     0.564390000000     0.865750000000    -0.00677002 
C112     C      0.010400000000     0.501430000000     0.860130000000    -0.00759215 
C113     C      0.019940000000     0.565330000000     0.753710000000    -0.0536941  
C114     C      0.973520000000     0.523350000000     0.715390000000    -0.0547348  
C115     C      0.998030000000     0.541510000000     0.771260000000     0.0617005  
C116     C      0.976560000000     0.562000000000     0.827320000000    -0.0300624  
C117     C      0.995630000000     0.547380000000     0.697830000000     0.0620868  
C118     C      0.962920000000     0.546220000000     0.642490000000    -0.0738927  
C119     C      0.018550000000     0.568430000000     0.717480000000    -0.0519601  
C120     C      0.966510000000     0.556170000000     0.603950000000     0.169145   
C121     C      0.029860000000     0.534920000000     0.607210000000     0.00171085 
C122     C      0.973960000000     0.521230000000     0.751760000000    -0.0553333  
C123     C      0.023280000000     0.479100000000     0.328490000000    -0.0317653  
C124     C      0.973100000000     0.521440000000     0.149370000000    -0.0301932  
C125     C      0.005260000000     0.468950000000     0.103750000000    -0.0075622  
C126     C      0.983620000000     0.532310000000     0.112460000000    -0.00643048 
C127     C      0.971240000000     0.466510000000     0.215060000000    -0.0556179  
C128     C      0.014710000000     0.508030000000     0.257190000000    -0.056041   
C129     C      0.995340000000     0.489930000000     0.199450000000     0.0609979  
C130     C      0.994640000000     0.462030000000     0.141620000000    -0.0299627  
C131     C      0.992140000000     0.483090000000     0.272730000000     0.0616395  
C132     C      0.964820000000     0.504620000000     0.325490000000    -0.0787778  
C133     C      0.970200000000     0.462770000000     0.251280000000    -0.0529027  
C134     C      0.956520000000     0.494010000000     0.363210000000     0.169767   
C135     C      0.018130000000     0.468300000000     0.366560000000     0.000675835
C136     C      0.016680000000     0.510830000000     0.220940000000    -0.0535568  
C137     C      0.164470000000     0.041530000000     0.463910000000    -0.0317771  
C138     C      0.346240000000     0.979320000000     0.488830000000    -0.0304351  
C139     C      0.386320000000     0.029730000000     0.447470000000    -0.00688325 
C140     C      0.381840000000     0.968560000000     0.473230000000    -0.0064803  
C141     C      0.283650000000     0.035850000000     0.502670000000    -0.0551765  
C142     C      0.231150000000     0.001250000000     0.464810000000    -0.0560549  
C143     C      0.293160000000     0.012260000000     0.475900000000     0.0611959  
C144     C      0.350680000000     0.038200000000     0.463690000000    -0.0300295  
C145     C      0.221710000000     0.027220000000     0.489380000000     0.0626831  
C146     C      0.168260000000     0.013590000000     0.521030000000    -0.0747867  
C147     C      0.248260000000     0.043670000000     0.508780000000    -0.0526852  
C148     C      0.132890000000     0.029530000000     0.532230000000     0.170945   
C149     C      0.128830000000     0.057870000000     0.472780000000     0.00151785 
C150     C      0.266580000000     0.994440000000     0.457760000000    -0.0529359  
C151     C      0.670100000000     0.025780000000     0.484850000000    -0.0326385  
C152     C      0.852770000000     0.977900000000     0.525530000000    -0.0303487  
C153     C      0.887120000000     0.986810000000     0.458260000000    -0.00609375 
C154     C      0.889980000000     0.963770000000     0.519920000000    -0.00672171 
C155     C      0.782860000000     0.010990000000     0.518550000000    -0.0552482  
C156     C      0.736360000000     0.971400000000     0.477860000000    -0.0552834  
C157     C      0.796170000000     0.985030000000     0.495800000000     0.0620833  
C158     C      0.850200000000     0.000780000000     0.466280000000    -0.0307006  
C159     C      0.722970000000     0.995170000000     0.502780000000     0.0630606  
C160     C      0.665590000000     0.966540000000     0.508790000000    -0.0742452  
C161     C      0.746580000000     0.015400000000     0.522420000000    -0.0516503  
C162     C      0.628230000000     0.973150000000     0.521950000000     0.169801   
C163     C      0.632930000000     0.035120000000     0.497250000000     0.0021086  
C164     C      0.772590000000     0.965970000000     0.475020000000    -0.0530888  
C165     C      0.040600000000     0.858740000000     0.442140000000    -0.0318798  
C166     C      0.990610000000     0.676520000000     0.474860000000    -0.0307368  
C167     C      0.040680000000     0.626890000000     0.444840000000    -0.00715163 
C168     C      0.977990000000     0.640080000000     0.463120000000    -0.00626544 
C169     C      0.052450000000     0.737570000000     0.481650000000    -0.0552877  
C170     C      0.013160000000     0.785940000000     0.442770000000    -0.0556349  
C171     C      0.027680000000     0.725090000000     0.457260000000     0.0613128  
C172     C      0.050470000000     0.664230000000     0.456480000000    -0.0303716  
C173     C      0.039120000000     0.798370000000     0.465950000000     0.0617927  
C174     C      0.023690000000     0.848070000000     0.502220000000    -0.0793138  
C175     C      0.058520000000     0.773750000000     0.485290000000    -0.0526179  
C176     C      0.036900000000     0.884490000000     0.513740000000     0.170317   
C177     C      0.053270000000     0.896100000000     0.450770000000     0.000987243
C178     C      0.008160000000     0.749720000000     0.438030000000    -0.0534733  
C179     C      0.968290000000     0.168160000000     0.478150000000    -0.0318767  
C180     C      0.001440000000     0.350710000000     0.527470000000    -0.0301159  
C181     C      0.945600000000     0.392540000000     0.495440000000    -0.00793731 
C182     C      0.010710000000     0.387320000000     0.513710000000    -0.00583227 
C183     C      0.947900000000     0.280360000000     0.530240000000    -0.0547682  
C184     C      0.995630000000     0.239730000000     0.491960000000    -0.0559201  
C185     C      0.972450000000     0.297250000000     0.508330000000     0.0614979  
C186     C      0.941260000000     0.354500000000     0.508360000000    -0.0293168  
C187     C      0.969370000000     0.222810000000     0.511720000000     0.0626362  
C188     C      0.989960000000     0.168300000000     0.537810000000    -0.0745322  
C189     C      0.946070000000     0.243490000000     0.531330000000    -0.0525517  
C190     C      0.980140000000     0.129260000000     0.542780000000     0.171181   
C191     C      0.958180000000     0.129270000000     0.480510000000     0.00142197 
C192     C      0.996540000000     0.276490000000     0.489750000000    -0.0526252  
Cu1      Cu     0.009670000000     0.015040000000     0.464230000000     0.840614   
Cu2      Cu     0.008890000000     0.006300000000     0.527890000000     0.844844   
Cu3      Cu     0.961080000000     0.517170000000     0.485500000000     0.84195    
Cu4      Cu     0.025300000000     0.507740000000     0.485510000000     0.839688   
Cu5      Cu     0.508040000000     0.968870000000     0.485980000000     0.849789   
Cu6      Cu     0.507510000000     0.033900000000     0.481560000000     0.842943   
Cu7      Cu     0.539930000000     0.979550000000     0.981250000000     0.845686   
Cu8      Cu     0.476060000000     0.989690000000     0.987040000000     0.847237   
Cu9      Cu     0.991530000000     0.483140000000     0.980870000000     0.842892   
Cu10     Cu     0.984270000000     0.547270000000     0.989630000000     0.839404   
Cu11     Cu     0.486780000000     0.483490000000     0.058640000000     0.838311   
Cu12     Cu     0.480130000000     0.473120000000     0.995530000000     0.846043   
H1       H      0.754690000000     0.527770000000     0.949390000000     0.0445901  
H2       H      0.665210000000     0.502760000000     0.056310000000     0.0355426  
H3       H      0.653210000000     0.452780000000     0.958200000000     0.0586816  
H4       H      0.855040000000     0.549300000000     0.962540000000     0.039122   
H5       H      0.615990000000     0.463070000000     0.062950000000     0.0446601  
H6       H      0.817620000000     0.443510000000     0.965230000000     0.0358572  
H7       H      0.806710000000     0.547940000000     0.003420000000     0.0342944  
H8       H      0.883670000000     0.448790000000     0.969640000000     0.041491   
H9       H      0.587640000000     0.458580000000     0.963230000000     0.00478166 
H10      H      0.691980000000     0.520380000000     0.961450000000     0.0409188  
H11      H      0.599560000000     0.507500000000     0.062100000000     0.0379613  
H12      H      0.779380000000     0.454550000000     0.031850000000     0.0415405  
H13      H      0.644770000000     0.526020000000     0.020700000000     0.0379026  
H14      H      0.872090000000     0.554360000000     0.005880000000     0.0403732  
H15      H      0.833870000000     0.454440000000     0.008080000000     0.0376247  
H16      H      0.827520000000     0.514710000000     0.029970000000     0.0385401  
H17      H      0.716600000000     0.444810000000     0.041840000000     0.0476138  
H18      H      0.637100000000     0.497040000000     0.964540000000     0.0456485  
H19      H      0.863840000000     0.476390000000     0.937270000000     0.037973   
H20      H      0.583710000000     0.410620000000     0.995900000000     0.148186   
H21      H      0.245860000000     0.464240000000     0.066800000000     0.0444401  
H22      H      0.166420000000     0.476270000000     0.971790000000     0.0364193  
H23      H      0.158290000000     0.571850000000     0.028880000000     0.0495984  
H24      H      0.348870000000     0.430760000000     0.022390000000     0.0362112  
H25      H      0.123260000000     0.512430000000     0.942450000000     0.0464816  
H26      H      0.312130000000     0.514800000000     0.084020000000     0.0345538  
H27      H      0.305770000000     0.461280000000     0.987100000000     0.0352719  
H28      H      0.377760000000     0.506430000000     0.084720000000     0.0391975  
H29      H      0.092280000000     0.571460000000     0.020070000000     0.00186716 
H30      H      0.185500000000     0.481510000000     0.052160000000     0.0409128  
H31      H      0.101510000000     0.475560000000     0.962110000000     0.0395397  
H32      H      0.285660000000     0.542170000000     0.995090000000     0.0416134  
H33      H      0.141290000000     0.476700000000     0.011700000000     0.0381373  
H34      H      0.370800000000     0.452110000000     0.986870000000     0.0408111  
H35      H      0.333580000000     0.533800000000     0.046520000000     0.0386128  
H36      H      0.330410000000     0.501970000000     0.989410000000     0.0391605  
H37      H      0.225320000000     0.557190000000     0.978150000000     0.048326   
H38      H      0.136840000000     0.532860000000     0.045180000000     0.0471105  
H39      H      0.353360000000     0.465720000000     0.086120000000     0.0383991  
H40      H      0.121740000000     0.604930000000     0.984420000000     0.139119   
H41      H      0.430490000000     0.701710000000     0.966660000000     0.0444895  
H42      H      0.535490000000     0.801520000000     0.969890000000     0.0350278  
H43      H      0.434170000000     0.815880000000     0.013750000000     0.0512721  
H44      H      0.451500000000     0.597610000000     0.964300000000     0.0390756  
H45      H      0.540340000000     0.855140000000     0.002650000000     0.0461749  
H46      H      0.459550000000     0.659200000000     0.056860000000     0.0354485  
H47      H      0.488130000000     0.647960000000     0.950670000000     0.0344925  
H48      H      0.467970000000     0.594290000000     0.066160000000     0.0414677  
H49      H      0.437650000000     0.881280000000     0.996700000000     0.00288574 
H50      H      0.437040000000     0.765750000000     0.962430000000     0.0406609  
H51      H      0.539060000000     0.866420000000     0.957320000000     0.0373395  
H52      H      0.523940000000     0.696480000000     0.030180000000     0.0413307  
H53      H      0.499460000000     0.817740000000     0.943970000000     0.0376861  
H54      H      0.496080000000     0.582610000000     0.959320000000     0.0393434  
H55      H      0.502890000000     0.643180000000     0.045820000000     0.03774    
H56      H      0.519500000000     0.637250000000     0.984270000000     0.0383602  
H57      H      0.528550000000     0.760710000000     0.028780000000     0.046398   
H58      H      0.442330000000     0.825760000000     0.968620000000     0.044948   
H59      H      0.432330000000     0.605220000000     0.037630000000     0.0370352  
H60      H      0.442490000000     0.869630000000     0.051540000000     0.139262   
H61      H      0.478930000000     0.240950000000     0.075050000000     0.0445076  
H62      H      0.578070000000     0.151490000000     0.019020000000     0.0363543  
H63      H      0.475160000000     0.165160000000     0.978160000000     0.0505232  
H64      H      0.481500000000     0.350030000000     0.092880000000     0.0386141  
H65      H      0.572640000000     0.112600000000     0.968880000000     0.0492443  
H66      H      0.464670000000     0.299230000000     0.996760000000     0.0354511  
H67      H      0.530720000000     0.309550000000     0.085370000000     0.0355989  
H68      H      0.453700000000     0.364090000000     0.996260000000     0.0405635  
H69      H      0.470580000000     0.100050000000     0.967130000000     0.00386581 
H70      H      0.493130000000     0.180570000000     0.057030000000     0.0407974  
H71      H      0.574450000000     0.086220000000     0.007840000000     0.0383615  
H72      H      0.546920000000     0.281600000000     0.994630000000     0.0429146  
H73      H      0.541470000000     0.130830000000     0.040920000000     0.0381563  
H74      H      0.520910000000     0.375390000000     0.085400000000     0.039868   
H75      H      0.504520000000     0.324910000000     0.992830000000     0.0398082  
H76      H      0.543920000000     0.330360000000     0.045170000000     0.0404484  
H77      H      0.558450000000     0.221320000000     0.974500000000     0.0483204  
H78      H      0.480990000000     0.138080000000     0.016300000000     0.0475292  
H79      H      0.438540000000     0.342650000000     0.035050000000     0.036256   
H80      H      0.485390000000     0.131430000000     0.922290000000     0.138702   
H81      H      0.446550000000     0.966020000000     0.760320000000     0.044233   
H82      H      0.512740000000     0.955810000000     0.659550000000     0.0371597  
H83      H      0.476570000000     0.061570000000     0.656400000000     0.0502971  
H84      H      0.519270000000     0.941190000000     0.853930000000     0.0372448  
H85      H      0.540770000000     0.980380000000     0.609320000000     0.0441082  
H86      H      0.442860000000     0.015210000000     0.815680000000     0.0345462  
H87      H      0.545030000000     0.971380000000     0.805100000000     0.0360337  
H88      H      0.448560000000     0.013250000000     0.880600000000     0.0407352  
H89      H      0.470950000000     0.056780000000     0.590330000000     0.000922499
H90      H      0.446910000000     0.975860000000     0.697360000000     0.0409934  
H91      H      0.506600000000     0.951420000000     0.594780000000     0.0397505  
H92      H      0.534530000000     0.037130000000     0.771420000000     0.0428801  
H93      H      0.469350000000     0.965740000000     0.643070000000     0.0366879  
H94      H      0.551960000000     0.970940000000     0.870270000000     0.0423954  
H95      H      0.480650000000     0.039120000000     0.831480000000     0.0410737  
H96      H      0.539510000000     0.013960000000     0.825620000000     0.039761   
H97      H      0.537100000000     0.044010000000     0.708210000000     0.0502845  
H98      H      0.448860000000     0.026220000000     0.641430000000     0.0466911  
H99      H      0.448010000000     0.970500000000     0.860350000000     0.0389127  
H100     H      0.516510000000     0.085400000000     0.609400000000     0.139725   
H101     H      0.482140000000     0.943980000000     0.209880000000     0.0452617  
H102     H      0.518430000000     0.042090000000     0.305650000000     0.0353843  
H103     H      0.546900000000     0.934430000000     0.317360000000     0.0587346  
H104     H      0.468690000000     0.966360000000     0.112480000000     0.0418391  
H105     H      0.553390000000     0.038530000000     0.358190000000     0.044896   
H106     H      0.572670000000     0.953580000000     0.153430000000     0.0361854  
H107     H      0.473280000000     0.003410000000     0.163270000000     0.0341864  
H108     H      0.571000000000     0.964050000000     0.088410000000     0.0425679  
H109     H      0.535030000000     0.938420000000     0.381510000000     0.00499407 
H110     H      0.486470000000     0.950570000000     0.272940000000     0.0411961  
H111     H      0.508360000000     0.047130000000     0.369700000000     0.0382304  
H112     H      0.569040000000     0.016020000000     0.196770000000     0.0413785  
H113     H      0.486640000000     0.010710000000     0.321670000000     0.0382128  
H114     H      0.470550000000     0.011560000000     0.098580000000     0.039545   
H115     H      0.567280000000     0.999050000000     0.140360000000     0.0368301  
H116     H      0.510330000000     0.027390000000     0.145990000000     0.0379506  
H117     H      0.575470000000     0.020010000000     0.259920000000     0.0473913  
H118     H      0.503200000000     0.948680000000     0.329080000000     0.0460468  
H119     H      0.539900000000     0.932440000000     0.104320000000     0.0431025  
H120     H      0.587060000000     0.962710000000     0.392100000000     0.147757   
H121     H      0.956040000000     0.503140000000     0.764370000000     0.0408071  
H122     H      0.048610000000     0.527640000000     0.659650000000     0.0359295  
H123     H      0.943030000000     0.563740000000     0.654890000000     0.0582387  
H124     H      0.012230000000     0.579730000000     0.867660000000     0.0421272  
H125     H      0.043540000000     0.560830000000     0.606060000000     0.0450375  
H126     H      0.016420000000     0.484730000000     0.806780000000     0.0349227  
H127     H      0.977300000000     0.589060000000     0.816070000000     0.0357583  
H128     H      0.005080000000     0.474580000000     0.870520000000     0.0417152  
H129     H      0.941100000000     0.549290000000     0.591130000000     0.00516686 
H130     H      0.955860000000     0.506180000000     0.701290000000     0.0407517  
H131     H      0.047740000000     0.514750000000     0.595840000000     0.0383917  
H132     H      0.038350000000     0.581410000000     0.768240000000     0.0462989  
H133     H      0.013920000000     0.497670000000     0.647450000000     0.038597   
H134     H      0.966760000000     0.579200000000     0.880220000000     0.0401986  
H135     H      0.971520000000     0.492100000000     0.820350000000     0.0370241  
H136     H      0.949090000000     0.551990000000     0.825200000000     0.0387778  
H137     H      0.035970000000     0.586830000000     0.704500000000     0.0478964  
H138     H      0.953140000000     0.518570000000     0.643990000000     0.0458255  
H139     H      0.039330000000     0.505590000000     0.861280000000     0.0394292  
H140     H      0.967990000000     0.599120000000     0.576640000000     0.147673   
H141     H      0.034620000000     0.529730000000     0.209460000000     0.044083   
H142     H      0.041710000000     0.460120000000     0.315990000000     0.0363769  
H143     H      0.939760000000     0.505370000000     0.310470000000     0.0494616  
H144     H      0.034370000000     0.471610000000     0.102500000000     0.0377189  
H145     H      0.011300000000     0.439780000000     0.367370000000     0.0465013  
H146     H      0.973950000000     0.545390000000     0.166150000000     0.0341171  
H147     H      0.012200000000     0.441270000000     0.152480000000     0.0349717  
H148     H      0.962850000000     0.549960000000     0.101790000000     0.0395295  
H149     H      0.940630000000     0.515690000000     0.375040000000     0.00292627 
H150     H      0.030970000000     0.525260000000     0.272810000000     0.0407229  
H151     H      0.043530000000     0.471570000000     0.380530000000     0.0397592  
H152     H      0.953360000000     0.450910000000     0.199500000000     0.0411736  
H153     H      0.035530000000     0.505760000000     0.328040000000     0.0367908  
H154     H      0.998060000000     0.445490000000     0.087900000000     0.0409177  
H155     H      0.945620000000     0.511220000000     0.149510000000     0.0380715  
H156     H      0.967170000000     0.451870000000     0.141910000000     0.036589   
H157     H      0.951900000000     0.444240000000     0.262800000000     0.0484162  
H158     H      0.976330000000     0.531650000000     0.325000000000     0.0474937  
H159     H      0.008410000000     0.547830000000     0.113760000000     0.0394437  
H160     H      0.912160000000     0.468960000000     0.358450000000     0.138881   
H161     H      0.273410000000     0.975420000000     0.437830000000     0.0446108  
H162     H      0.178360000000     0.059200000000     0.445290000000     0.0364911  
H163     H      0.185030000000     0.010210000000     0.544570000000     0.0582029  
H164     H      0.382020000000     0.021930000000     0.419880000000     0.0365467  
H165     H      0.133300000000     0.085420000000     0.481710000000     0.0438409  
H166     H      0.329450000000     0.955320000000     0.490710000000     0.0350727  
H167     H      0.337070000000     0.057940000000     0.447000000000     0.0353967  
H168     H      0.395240000000     0.950260000000     0.491570000000     0.0400808  
H169     H      0.119700000000     0.009730000000     0.549280000000     0.00664136 
H170     H      0.211390000000     0.986780000000     0.450470000000     0.0420365  
H171     H      0.112540000000     0.059170000000     0.448790000000     0.0395603  
H172     H      0.303400000000     0.048930000000     0.518280000000     0.0418173  
H173     H      0.159660000000     0.015730000000     0.450940000000     0.0388496  
H174     H      0.402710000000     0.054010000000     0.447360000000     0.0414032  
H175     H      0.350160000000     0.989940000000     0.515600000000     0.0394062  
H176     H      0.355320000000     0.050130000000     0.489760000000     0.0389497  
H177     H      0.241440000000     0.062830000000     0.528590000000     0.0504306  
H178     H      0.163890000000     0.987030000000     0.509370000000     0.0507308  
H179     H      0.377080000000     0.954160000000     0.448440000000     0.0383673  
H180     H      0.116370000000     0.067040000000     0.562220000000     0.14956    
H181     H      0.782410000000     0.946740000000     0.456550000000     0.0448016  
H182     H      0.686080000000     0.050390000000     0.484570000000     0.0368634  
H183     H      0.678560000000     0.946790000000     0.526010000000     0.0589684  
H184     H      0.884660000000     0.960780000000     0.445130000000     0.0380015  
H185     H      0.634880000000     0.049790000000     0.522250000000     0.0483895  
H186     H      0.839160000000     0.960820000000     0.544860000000     0.0363815  
H187     H      0.834760000000     0.000800000000     0.441650000000     0.0348827  
H188     H      0.904920000000     0.966030000000     0.544700000000     0.041675   
H189     H      0.613310000000     0.948090000000     0.518420000000     0.00529859 
H190     H      0.719060000000     0.956440000000     0.461120000000     0.0420178  
H191     H      0.620540000000     0.052860000000     0.477710000000     0.0395118  
H192     H      0.800210000000     0.027400000000     0.533870000000     0.042938   
H193     H      0.669050000000     0.015220000000     0.457800000000     0.0397412  
H194     H      0.900160000000     0.005330000000     0.439890000000     0.0405059  
H195     H      0.854870000000     0.005030000000     0.536420000000     0.0396135  
H196     H      0.851870000000     0.028440000000     0.475950000000     0.040311   
H197     H      0.736750000000     0.034580000000     0.540920000000     0.0489524  
H198     H      0.663790000000     0.955170000000     0.482130000000     0.0467246  
H199     H      0.888150000000     0.935240000000     0.513390000000     0.0367873  
H200     H      0.605080000000     0.979890000000     0.566360000000     0.149574   
H201     H      0.988360000000     0.740700000000     0.419810000000     0.0440252  
H202     H      0.056280000000     0.848470000000     0.419880000000     0.0362066  
H203     H      0.025930000000     0.829630000000     0.524690000000     0.0496243  
H204     H      0.036910000000     0.627040000000     0.416130000000     0.0368645  
H205     H      0.082360000000     0.895500000000     0.453710000000     0.0462154  
H206     H      0.968090000000     0.695160000000     0.472600000000     0.0347627  
H207     H      0.072730000000     0.673750000000     0.440190000000     0.0351991  
H208     H      0.957170000000     0.631000000000     0.481380000000     0.0401809  
H209     H      0.018620000000     0.894290000000     0.534330000000     0.0035758  
H210     H      0.996650000000     0.803880000000     0.428250000000     0.0409033  
H211     H      0.047140000000     0.913720000000     0.428450000000     0.0395622  
H212     H      0.067250000000     0.719700000000     0.497950000000     0.0419183  
H213     H      0.012530000000     0.860440000000     0.434080000000     0.0372436  
H214     H      0.063060000000     0.608940000000     0.450590000000     0.0414498  
H215     H      0.998780000000     0.675560000000     0.502710000000     0.0405175  
H216     H      0.059330000000     0.662870000000     0.484070000000     0.0386507  
H217     H      0.077900000000     0.782780000000     0.503940000000     0.0483269  
H218     H      0.995370000000     0.849700000000     0.494920000000     0.048492   
H219     H      0.966050000000     0.642480000000     0.436790000000     0.0383441  
H220     H      0.068620000000     0.872880000000     0.551740000000     0.139385   
H221     H      0.016230000000     0.288980000000     0.473530000000     0.0448335  
H222     H      0.950160000000     0.181450000000     0.459540000000     0.0369657  
H223     H      0.988240000000     0.181840000000     0.563490000000     0.0576938  
H224     H      0.944110000000     0.392560000000     0.466510000000     0.0432636  
H225     H      0.929600000000     0.127540000000     0.486440000000     0.0436735  
H226     H      0.025870000000     0.334510000000     0.527420000000     0.0343161  
H227     H      0.920330000000     0.341520000000     0.492660000000     0.0361661  
H228     H      0.027780000000     0.400830000000     0.533110000000     0.0385087  
H229     H      0.000820000000     0.117110000000     0.559550000000     0.00315383 
H230     H      0.015050000000     0.224750000000     0.477670000000     0.0415061  
H231     H      0.962360000000     0.116750000000     0.454670000000     0.0395651  
H232     H      0.929650000000     0.295340000000     0.545970000000     0.0416338  
H233     H      0.995510000000     0.169780000000     0.467640000000     0.038222   
H234     H      0.922970000000     0.408480000000     0.504910000000     0.0417472  
H235     H      0.991940000000     0.352480000000     0.554860000000     0.0380889  
H236     H      0.932480000000     0.355130000000     0.536020000000     0.035883   
H237     H      0.926320000000     0.230920000000     0.547420000000     0.050554   
H238     H      0.017650000000     0.170360000000     0.528520000000     0.0479308  
H239     H      0.026430000000     0.384320000000     0.489460000000     0.0419649  
H240     H      0.944730000000     0.102360000000     0.567420000000     0.150885   
N1       N      0.588950000000     0.476240000000     0.016600000000    -0.186276   
N2       N      0.662660000000     0.474000000000     0.008750000000    -0.0999563  
N3       N      0.808600000000     0.496730000000     0.980720000000    -0.113207   
N4       N      0.882390000000     0.504480000000     0.981080000000    -0.167125   
N5       N      0.093270000000     0.526290000000     0.986670000000    -0.182275   
N6       N      0.166360000000     0.525610000000     0.998460000000    -0.100906   
N7       N      0.304890000000     0.486350000000     0.036790000000    -0.113616   
N8       N      0.378120000000     0.475460000000     0.037760000000    -0.167984   
N9       N      0.492840000000     0.879420000000     0.986740000000    -0.182119   
N10      N      0.486750000000     0.806330000000     0.996960000000    -0.100566   
N11      N      0.470040000000     0.656660000000     0.002400000000    -0.1133     
N12      N      0.476040000000     0.583120000000     0.011590000000    -0.167529   
N13      N      0.523890000000     0.089620000000     0.982810000000    -0.182463   
N14      N      0.527970000000     0.162370000000     0.996820000000    -0.10059    
N15      N      0.496450000000     0.300330000000     0.042530000000    -0.113561   
N16      N      0.484090000000     0.373430000000     0.042970000000    -0.168359   
N17      N      0.497100000000     0.007150000000     0.587760000000    -0.18242    
N18      N      0.499020000000     0.010320000000     0.660790000000    -0.100326   
N19      N      0.492110000000     0.989880000000     0.807010000000    -0.112973   
N20      N      0.497910000000     0.985430000000     0.879800000000    -0.167223   
N21      N      0.527460000000     0.994860000000     0.380950000000    -0.187018   
N22      N      0.536770000000     0.989030000000     0.308490000000    -0.0999972  
N23      N      0.521200000000     0.974340000000     0.161320000000    -0.112707   
N24      N      0.516750000000     0.980530000000     0.088530000000    -0.166638   
N25      N      0.996540000000     0.537540000000     0.587630000000    -0.185985   
N26      N      0.997110000000     0.549880000000     0.660200000000    -0.0998752  
N27      N      0.001100000000     0.538760000000     0.808750000000    -0.112844   
N28      N      0.993130000000     0.529160000000     0.881190000000    -0.166229   
N29      N      0.989340000000     0.488460000000     0.383120000000    -0.181485   
N30      N      0.989250000000     0.478970000000     0.310100000000    -0.100436   
N31      N      0.997800000000     0.494680000000     0.162110000000    -0.11303    
N32      N      0.989340000000     0.501520000000     0.089490000000    -0.166758   
N33      N      0.111640000000     0.037970000000     0.501100000000    -0.186978   
N34      N      0.185550000000     0.037130000000     0.495860000000    -0.0999378  
N35      N      0.329400000000     0.005800000000     0.466350000000    -0.113439   
N36      N      0.403310000000     0.000090000000     0.465860000000    -0.167767   
N37      N      0.611930000000     0.002890000000     0.502900000000    -0.186391   
N38      N      0.685680000000     0.999790000000     0.508680000000    -0.099468   
N39      N      0.833370000000     0.977890000000     0.492270000000    -0.113244   
N40      N      0.907280000000     0.982260000000     0.490760000000    -0.16777    
N41      N      0.037710000000     0.908860000000     0.483720000000    -0.181854   
N42      N      0.044850000000     0.835540000000     0.472690000000    -0.100208   
N43      N      0.019970000000     0.687940000000     0.452650000000    -0.113116   
N44      N      0.007630000000     0.615000000000     0.461330000000    -0.167457   
N45      N      0.977860000000     0.111480000000     0.508620000000    -0.187102   
N46      N      0.965770000000     0.184810000000     0.512760000000    -0.0999076  
N47      N      0.974630000000     0.335240000000     0.504740000000    -0.112023   
N48      N      0.979320000000     0.409000000000     0.505890000000    -0.166031   
O1       O      0.993220000000     0.065000000000     0.473640000000    -0.400232   
O2       O      0.025670000000     0.963760000000     0.461060000000    -0.398422   
O3       O      0.958650000000     0.999450000000     0.464570000000    -0.399089   
O4       O      0.060530000000     0.030470000000     0.470170000000    -0.399378   
O5       O      0.060660000000     0.019360000000     0.527150000000    -0.400163   
O6       O      0.957380000000     0.993190000000     0.522280000000    -0.398907   
O7       O      0.021890000000     0.955430000000     0.518360000000    -0.397045   
O8       O      0.995810000000     0.058350000000     0.531250000000    -0.400807   
O9       O      0.957000000000     0.464450000000     0.495510000000    -0.394301   
O10      O      0.971570000000     0.568620000000     0.475260000000    -0.39893    
O11      O      0.962700000000     0.506420000000     0.433720000000    -0.394861   
O12      O      0.965680000000     0.527760000000     0.537150000000    -0.400823   
O13      O      0.023920000000     0.521000000000     0.536850000000    -0.397515   
O14      O      0.020160000000     0.494850000000     0.434270000000    -0.397988   
O15      O      0.029400000000     0.559540000000     0.472120000000    -0.397795   
O16      O      0.015100000000     0.457050000000     0.498650000000    -0.398609   
O17      O      0.560360000000     0.972820000000     0.494810000000    -0.403562   
O18      O      0.455120000000     0.971380000000     0.477730000000    -0.398343   
O19      O      0.517160000000     0.968770000000     0.433880000000    -0.403597   
O20      O      0.500360000000     0.975190000000     0.537460000000    -0.405453   
O21      O      0.498920000000     0.033900000000     0.534050000000    -0.390653   
O22      O      0.516000000000     0.027440000000     0.429880000000    -0.400339   
O23      O      0.455160000000     0.029980000000     0.472710000000    -0.400043   
O24      O      0.560320000000     0.031450000000     0.490020000000    -0.3957     
O25      O      0.541240000000     0.977270000000     0.034030000000    -0.397949   
O26      O      0.532000000000     0.981860000000     0.928980000000    -0.3978     
O27      O      0.545090000000     0.032980000000     0.983520000000    -0.397921   
O28      O      0.528700000000     0.927420000000     0.979790000000    -0.400803   
O29      O      0.471430000000     0.936140000000     0.988870000000    -0.395658   
O30      O      0.487120000000     0.041860000000     0.984480000000    -0.401835   
O31      O      0.474010000000     0.988770000000     0.934390000000    -0.400244   
O32      O      0.484280000000     0.990220000000     0.039200000000    -0.3991     
O33      O      0.991260000000     0.479270000000     0.033810000000    -0.397374   
O34      O      0.992300000000     0.493230000000     0.929140000000    -0.39891    
O35      O      0.044010000000     0.491970000000     0.981860000000    -0.401872   
O36      O      0.938010000000     0.480710000000     0.979680000000    -0.397559   
O37      O      0.931710000000     0.538620000000     0.987620000000    -0.398802   
O38      O      0.037790000000     0.549650000000     0.991510000000    -0.393525   
O39      O      0.985660000000     0.551180000000     0.936560000000    -0.393501   
O40      O      0.983380000000     0.537030000000     0.041480000000    -0.397555   
O41      O      0.490010000000     0.429990000000     0.063380000000    -0.396424   
O42      O      0.482620000000     0.535550000000     0.047730000000    -0.399656   
O43      O      0.433320000000     0.481260000000     0.061220000000    -0.396811   
O44      O      0.539490000000     0.485300000000     0.049710000000    -0.397856   
O45      O      0.533470000000     0.472200000000     0.993450000000    -0.402587   
O46      O      0.427570000000     0.473770000000     0.003900000000    -0.400481   
O47      O      0.480480000000     0.526640000000     0.990390000000    -0.397864   
O48      O      0.479670000000     0.421070000000     0.006890000000    -0.401608   
O49      O      0.607770000000     0.420810000000     0.996190000000    -0.281159   
O50      O      0.118720000000     0.581140000000     0.974000000000    -0.273703   
O51      O      0.466180000000     0.868560000000     0.040690000000    -0.273871   
O52      O      0.506920000000     0.123310000000     0.934550000000    -0.275864   
O53      O      0.522610000000     0.060060000000     0.606790000000    -0.270615   
O54      O      0.579970000000     0.965050000000     0.367330000000    -0.281126   
O55      O      0.971830000000     0.592730000000     0.601430000000    -0.280715   
O56      O      0.936980000000     0.462550000000     0.363470000000    -0.273736   
O57      O      0.139140000000     0.060430000000     0.551380000000    -0.281896   
O58      O      0.629610000000     0.981270000000     0.557580000000    -0.278891   
O59      O      0.071030000000     0.881520000000     0.527450000000    -0.274586   
O60      O      0.947510000000     0.127210000000     0.559740000000    -0.281908   


