data_structure

_audit_creation_method RASPA-1.0
_audit_creation_date 2023-6-5
_audit_author_name 'Poobodin Mano'

_cell_length_a    62.9797
_cell_length_b    62.1235
_cell_length_c    37.4109
_cell_angle_alpha 89.9339
_cell_angle_beta  90.0659
_cell_angle_gamma 119.943
_cell_volume      126834

_symmetry_cell_setting          triclinic
_symmetry_space_group_name_Hall 'P 1'
_symmetry_space_group_name_H-M  'P 1'
_symmetry_Int_Tables_number     1

_symmetry_equiv_pos_as_xyz 'x,y,z'

loop_
_atom_site_label
_atom_site_type_symbol
_atom_site_fract_x
_atom_site_fract_y
_atom_site_fract_z
_atom_site_charge
C1       C      0.896680000000     0.683200000000     0.621620000000     0.400126   
C2       C      0.800030000000     0.642470000000     0.603830000000     0.399968   
C3       C      0.844180000000     0.660780000000     0.683710000000     0.408818   
C4       C      0.854140000000     0.665050000000     0.542600000000     0.4016     
C5       C      0.133890000000     0.812170000000     0.759640000000     0.398311   
C6       C      0.223110000000     0.868210000000     0.815280000000     0.400354   
C7       C      0.197580000000     0.845290000000     0.722260000000     0.404152   
C8       C      0.160560000000     0.835430000000     0.853130000000     0.403313   
C9       C      0.552860000000     0.048160000000     0.005000000000     0.398093   
C10      C      0.463360000000     0.002930000000     0.947670000000     0.397093   
C11      C      0.488260000000     0.023570000000     0.039650000000     0.403027   
C12      C      0.527750000000     0.027690000000     0.912160000000     0.400578   
C13      C      0.211510000000     0.354810000000     0.382860000000     0.398013   
C14      C      0.124480000000     0.324930000000     0.322120000000     0.397431   
C15      C      0.148090000000     0.336680000000     0.416110000000     0.402133   
C16      C      0.187580000000     0.342790000000     0.287740000000     0.3992     
C17      C      0.887600000000     0.225410000000     0.180220000000     0.399532   
C18      C      0.795860000000     0.174310000000     0.131860000000     0.401509   
C19      C      0.826990000000     0.181030000000     0.219670000000     0.403795   
C20      C      0.858030000000     0.220070000000     0.090410000000     0.403697   
C21      C      0.550170000000     0.514500000000     0.515730000000     0.398008   
C22      C      0.452920000000     0.460500000000     0.502240000000     0.400466   
C23      C      0.497020000000     0.481920000000     0.579560000000     0.402298   
C24      C      0.505660000000     0.492680000000     0.438120000000     0.400232   
C25      C      0.206400000000     0.315200000000     0.830610000000     0.399561   
C26      C      0.150250000000     0.352390000000     0.871620000000     0.401919   
C27      C      0.167080000000     0.334840000000     0.782500000000     0.398322   
C28      C      0.190130000000     0.332870000000     0.919200000000     0.40117    
C29      C      0.326870000000     0.201810000000     0.672650000000     0.401894   
C30      C      0.366660000000     0.151080000000     0.617570000000     0.399368   
C31      C      0.356030000000     0.166560000000     0.711700000000     0.399481   
C32      C      0.337280000000     0.185940000000     0.580280000000     0.401787   
C33      C      0.022010000000     0.474870000000     0.960840000000     0.397638   
C34      C      0.980560000000     0.526420000000     0.006540000000     0.402031   
C35      C      0.001850000000     0.516020000000     0.916570000000     0.400606   
C36      C      0.001270000000     0.484660000000     0.049460000000     0.400831   
C37      C      0.662100000000     0.876040000000     0.330710000000     0.402436   
C38      C      0.693000000000     0.815740000000     0.282630000000     0.401999   
C39      C      0.678230000000     0.831430000000     0.372190000000     0.400455   
C40      C      0.676890000000     0.860880000000     0.238560000000     0.398966   
C41      C      0.801200000000     0.688900000000     0.134520000000     0.399877   
C42      C      0.856740000000     0.654990000000     0.078920000000     0.402761   
C43      C      0.842730000000     0.667320000000     0.171440000000     0.399923   
C44      C      0.814660000000     0.676520000000     0.040530000000     0.400494   
C45      C      0.553630000000     0.004520000000     0.466280000000     0.401243   
C46      C      0.492550000000     0.040110000000     0.477640000000     0.401448   
C47      C      0.519220000000     0.021980000000     0.400910000000     0.39976    
C48      C      0.527520000000     0.022170000000     0.542700000000     0.401772   
C49      C      0.336840000000     0.130890000000     0.170320000000     0.400902   
C50      C      0.389820000000     0.224840000000     0.126320000000     0.401329   
C51      C      0.365260000000     0.191820000000     0.215670000000     0.39828    
C52      C      0.361150000000     0.162970000000     0.080500000000     0.40076    
C53      C      0.521020000000     0.477680000000     0.035600000000     0.398196   
C54      C      0.569100000000     0.572370000000     0.993790000000     0.400737   
C55      C      0.557140000000     0.540340000000     0.081890000000     0.40413    
C56      C      0.533230000000     0.509990000000     0.947180000000     0.399384   
C57      C      0.186860000000     0.889330000000     0.292850000000     0.4001     
C58      C      0.126460000000     0.791380000000     0.288510000000     0.399826   
C59      C      0.151830000000     0.843570000000     0.220230000000     0.399045   
C60      C      0.161640000000     0.837260000000     0.360730000000     0.399274   
C61      C      0.018780000000     0.561880000000     0.453230000000     0.399088   
C62      C      0.981110000000     0.471680000000     0.511440000000     0.402416   
C63      C      0.996080000000     0.499070000000     0.416520000000     0.400866   
C64      C      0.003810000000     0.534620000000     0.548300000000     0.396581   
C65      C      0.856930000000     0.236170000000     0.661600000000     0.399563   
C66      C      0.800650000000     0.137570000000     0.657800000000     0.399761   
C67      C      0.830340000000     0.188480000000     0.588800000000     0.399776   
C68      C      0.827170000000     0.185190000000     0.731120000000     0.400145   
C69      C      0.667010000000     0.806520000000     0.835520000000     0.399111   
C70      C      0.695840000000     0.894440000000     0.774530000000     0.401012   
C71      C      0.684600000000     0.869620000000     0.870210000000     0.399952   
C72      C      0.678030000000     0.831210000000     0.740480000000     0.399752   
C73      C      0.693600000000     0.947960000000     0.730320000000    -0.0302219  
C74      C      0.785140000000     0.073480000000     0.674770000000    -0.0299144  
C75      C      0.759300000000     0.100040000000     0.656930000000    -0.0071431  
C76      C      0.797280000000     0.096370000000     0.650690000000    -0.00709357 
C77      C      0.735260000000     0.015420000000     0.667110000000    -0.0545164  
C78      C      0.737560000000     0.011350000000     0.741300000000    -0.0537014  
C79      C      0.746470000000     0.036970000000     0.688010000000     0.0613595  
C80      C      0.748340000000     0.076790000000     0.680620000000    -0.030245   
C81      C      0.726920000000     0.989810000000     0.720310000000     0.0604756  
C82      C      0.734990000000     0.956050000000     0.726290000000    -0.0427801  
C83      C      0.725570000000     0.992030000000     0.682970000000    -0.0559714  
C84      C      0.729690000000     0.933130000000     0.748720000000     0.0396763  
C85      C      0.685410000000     0.925500000000     0.754770000000    -0.00625664 
C86      C      0.747270000000     0.034770000000     0.725400000000    -0.0565964  
C87      C      0.934800000000     0.412640000000     0.555750000000    -0.0302536  
C88      C      0.910420000000     0.294720000000     0.636910000000    -0.0302621  
C89      C      0.860540000000     0.277790000000     0.660980000000    -0.00706495 
C90      C      0.898300000000     0.273710000000     0.664400000000    -0.00717141 
C91      C      0.923120000000     0.356760000000     0.634790000000    -0.0544291  
C92      C      0.927230000000     0.354200000000     0.560680000000    -0.0535716  
C93      C      0.913170000000     0.333520000000     0.618230000000     0.0614123  
C94      C      0.873680000000     0.298450000000     0.633330000000    -0.0301022  
C95      C      0.937240000000     0.377470000000     0.577260000000     0.0602912  
C96      C      0.974300000000     0.416560000000     0.566080000000    -0.0431441  
C97      C      0.934920000000     0.378560000000     0.614610000000    -0.0559124  
C98      C      0.987260000000     0.438700000000     0.540070000000     0.0401032  
C99      C      0.944470000000     0.432560000000     0.526860000000    -0.00679631 
C100     C      0.915150000000     0.332360000000     0.580860000000    -0.0566937  
C101     C      0.020930000000     0.616140000000     0.405850000000    -0.0294981  
C102     C      0.110760000000     0.729100000000     0.312240000000    -0.0301608  
C103     C      0.084440000000     0.755030000000     0.293790000000    -0.00712766 
C104     C      0.120340000000     0.748830000000     0.282790000000    -0.00687094 
C105     C      0.059440000000     0.672280000000     0.324260000000    -0.0545979  
C106     C      0.069390000000     0.677890000000     0.397610000000    -0.053659   
C107     C      0.073740000000     0.696120000000     0.338530000000     0.0613773  
C108     C      0.075720000000     0.735050000000     0.322900000000    -0.0302193  
C109     C      0.055310000000     0.654000000000     0.383280000000     0.0602167  
C110     C      0.060150000000     0.618960000000     0.397600000000    -0.0427559  
C111     C      0.050330000000     0.651370000000     0.346290000000    -0.0559532  
C112     C      0.054630000000     0.598470000000     0.425260000000     0.0391199  
C113     C      0.013430000000     0.596770000000     0.435440000000    -0.00939003 
C114     C      0.078600000000     0.698820000000     0.375520000000    -0.0566964  
C115     C      0.620090000000     0.635170000000     0.963640000000    -0.0304338  
C116     C      0.625960000000     0.743090000000     0.873050000000    -0.0298425  
C117     C      0.678240000000     0.777740000000     0.863640000000    -0.00672058 
C118     C      0.634610000000     0.770610000000     0.867560000000    -0.00701444 
C119     C      0.638140000000     0.711730000000     0.940590000000    -0.0543757  
C120     C      0.615450000000     0.670650000000     0.895050000000    -0.0535977  
C121     C      0.636440000000     0.715400000000     0.904020000000     0.061487   
C122     C      0.667120000000     0.749720000000     0.868990000000    -0.029956   
C123     C      0.616260000000     0.666940000000     0.931860000000     0.0603083  
C124     C      0.583790000000     0.638240000000     0.970280000000    -0.0433025  
C125     C      0.628320000000     0.687770000000     0.954480000000    -0.0560049  
C126     C      0.567850000000     0.610750000000     0.980800000000     0.0403108  
C127     C      0.606790000000     0.607200000000     0.970270000000    -0.00558278 
C128     C      0.625640000000     0.694680000000     0.881070000000    -0.0568054  
C129     C      0.282660000000     0.073650000000     0.206640000000    -0.030154   
C130     C      0.242130000000     0.947220000000     0.270240000000    -0.0299918  
C131     C      0.193030000000     0.931930000000     0.296440000000    -0.00696017 
C132     C      0.229230000000     0.925020000000     0.295500000000    -0.00702755 
C133     C      0.259860000000     0.010200000000     0.277550000000    -0.0545118  
C134     C      0.264670000000     0.011600000000     0.203140000000    -0.0537035  
C135     C      0.247820000000     0.988080000000     0.258040000000     0.0615051  
C136     C      0.207140000000     0.953930000000     0.271010000000    -0.0302117  
C137     C      0.277140000000     0.033690000000     0.222740000000     0.060357   
C138     C      0.317930000000     0.069000000000     0.216430000000    -0.0427238  
C139     C      0.274250000000     0.032850000000     0.260180000000    -0.0559445  
C140     C      0.334690000000     0.092000000000     0.193590000000     0.0387618  
C141     C      0.296170000000     0.095110000000     0.180590000000    -0.00692906 
C142     C      0.249960000000     0.988960000000     0.220510000000    -0.0566538  
C143     C      0.405020000000     0.288000000000     0.092330000000    -0.0303095  
C144     C      0.507850000000     0.414190000000     0.064020000000    -0.0297945  
C145     C      0.481300000000     0.440350000000     0.047330000000    -0.00708535 
C146     C      0.520900000000     0.438290000000     0.042490000000    -0.00683214 
C147     C      0.458730000000     0.356810000000     0.043920000000    -0.0542216  
C148     C      0.454020000000     0.345650000000     0.116930000000    -0.0537856  
C149     C      0.468900000000     0.376150000000     0.068880000000     0.0613711  
C150     C      0.470550000000     0.416030000000     0.068390000000    -0.0298608  
C151     C      0.443660000000     0.326290000000     0.091940000000     0.0604526  
C152     C      0.442630000000     0.286950000000     0.093990000000    -0.0429915  
C153     C      0.446270000000     0.332100000000     0.055200000000    -0.0561109  
C154     C      0.430530000000     0.261210000000     0.112040000000     0.0395117  
C155     C      0.390610000000     0.263540000000     0.112380000000    -0.00621554 
C156     C      0.466610000000     0.370420000000     0.105610000000    -0.0567415  
C157     C      0.699990000000     0.828500000000     0.465380000000    -0.0303251  
C158     C      0.654060000000     0.813400000000     0.649680000000    -0.0301308  
C159     C      0.698250000000     0.823920000000     0.688860000000    -0.00672258 
C160     C      0.652470000000     0.806500000000     0.689260000000    -0.00714668 
C161     C      0.676880000000     0.797740000000     0.573100000000    -0.0543504  
C162     C      0.674880000000     0.837200000000     0.540480000000    -0.0533586  
C163     C      0.675280000000     0.815400000000     0.594390000000     0.0612117  
C164     C      0.698310000000     0.830520000000     0.649380000000    -0.030273   
C165     C      0.675920000000     0.819220000000     0.519150000000     0.0604323  
C166     C      0.656840000000     0.799410000000     0.462970000000    -0.0429717  
C167     C      0.677490000000     0.799710000000     0.535840000000    -0.0561501  
C168     C      0.655390000000     0.803940000000     0.422630000000     0.0401645  
C169     C      0.701380000000     0.838180000000     0.427490000000    -0.00458041 
C170     C      0.674850000000     0.835550000000     0.577770000000    -0.0565362  
C171     C      0.664400000000     0.880310000000     0.960530000000    -0.0304994  
C172     C      0.700510000000     0.884420000000     0.148410000000    -0.0302026  
C173     C      0.653230000000     0.858970000000     0.184550000000    -0.00749143 
C174     C      0.698810000000     0.889200000000     0.188180000000    -0.00695197 
C175     C      0.680710000000     0.897730000000     0.071940000000    -0.0541757  
C176     C      0.682010000000     0.858730000000     0.036750000000    -0.0535335  
C177     C      0.679510000000     0.878080000000     0.091950000000     0.0611019  
C178     C      0.656660000000     0.855630000000     0.144850000000    -0.0299529  
C179     C      0.682530000000     0.878050000000     0.016670000000     0.0606146  
C180     C      0.707510000000     0.895040000000     0.963780000000    -0.0430679  
C181     C      0.682470000000     0.897930000000     0.034670000000    -0.05614    
C182     C      0.709320000000     0.889260000000     0.924220000000     0.0406118  
C183     C      0.662300000000     0.872830000000     0.921240000000    -0.00484476 
C184     C      0.680770000000     0.858800000000     0.074060000000    -0.0563617  
C185     C      0.692360000000     0.757280000000     0.253470000000    -0.0304057  
C186     C      0.783760000000     0.733820000000     0.170620000000    -0.0297794  
C187     C      0.761660000000     0.680350000000     0.160010000000    -0.00652095 
C188     C      0.800410000000     0.722670000000     0.167250000000    -0.00686758 
C189     C      0.740160000000     0.725810000000     0.233990000000    -0.0543755  
C190     C      0.728710000000     0.753260000000     0.186360000000    -0.0536958  
C191     C      0.746020000000     0.726600000000     0.197780000000     0.0616431  
C192     C      0.746990000000     0.693830000000     0.163690000000    -0.0300978  
C193     C      0.724130000000     0.753620000000     0.222920000000     0.0604768  
C194     C      0.734450000000     0.789180000000     0.259750000000    -0.0430373  
C195     C      0.729140000000     0.739010000000     0.246550000000    -0.0560867  
C196     C      0.727860000000     0.809190000000     0.269420000000     0.0398492  
C197     C      0.682550000000     0.775060000000     0.258830000000    -0.00536338 
C198     C      0.739360000000     0.739670000000     0.173700000000    -0.0567858  
C199     C      0.664050000000     0.932080000000     0.371990000000    -0.0301835  
C200     C      0.572330000000     0.959440000000     0.442730000000    -0.0298676  
C201     C      0.596010000000     0.012000000000     0.460840000000    -0.00699466 
C202     C      0.560320000000     0.968590000000     0.469460000000    -0.00681156 
C203     C      0.624140000000     0.955510000000     0.442210000000    -0.0545203  
C204     C      0.618660000000     0.949820000000     0.368030000000    -0.0536863  
C205     C      0.611280000000     0.965060000000     0.423850000000     0.0616469  
C206     C      0.606940000000     0.001260000000     0.434550000000    -0.0302774  
C207     C      0.630900000000     0.939600000000     0.386530000000     0.060592   
C208     C      0.622810000000     0.897970000000     0.377810000000    -0.0428533  
C209     C      0.633850000000     0.942840000000     0.423860000000    -0.056066   
C210     C      0.627650000000     0.880830000000     0.353790000000     0.0393941  
C211     C      0.671390000000     0.918070000000     0.345970000000    -0.00677042 
C212     C      0.608870000000     0.962430000000     0.386430000000    -0.0566833  
C213     C      0.979660000000     0.514120000000     0.824180000000    -0.0291516  
C214     C      0.026630000000     0.554720000000     0.642800000000    -0.0297571  
C215     C      0.982010000000     0.537710000000     0.600300000000    -0.00565844 
C216     C      0.027360000000     0.547670000000     0.603900000000    -0.00625738 
C217     C      0.999550000000     0.517880000000     0.713360000000    -0.0525678  
C218     C      0.002640000000     0.557530000000     0.752830000000    -0.0538232  
C219     C      0.001280000000     0.538480000000     0.695450000000     0.0599662  
C220     C      0.984580000000     0.544640000000     0.639950000000    -0.0283203  
C221     C      0.000540000000     0.536720000000     0.770770000000     0.0587017  
C222     C      0.023850000000     0.539610000000     0.823330000000    -0.0431448  
C223     C      0.999420000000     0.517030000000     0.750620000000    -0.0544236  
C224     C      0.025250000000     0.542570000000     0.864270000000     0.0389873  
C225     C      0.978630000000     0.516600000000     0.864550000000    -0.00669972 
C226     C      0.003250000000     0.558580000000     0.715450000000    -0.0568024  
C227     C      0.976760000000     0.466180000000     0.138340000000    -0.0312593  
C228     C      0.014430000000     0.485260000000     0.327210000000    -0.0306915  
C229     C      0.972950000000     0.486400000000     0.360370000000    -0.006131   
C230     C      0.018210000000     0.497310000000     0.363980000000    -0.00777357 
C231     C      0.998490000000     0.500940000000     0.244600000000    -0.052282   
C232     C      0.993160000000     0.455850000000     0.220830000000    -0.0540631  
C233     C      0.995640000000     0.482890000000     0.269580000000     0.0612864  
C234     C      0.972110000000     0.474660000000     0.324110000000    -0.0297848  
C235     C      0.996750000000     0.474220000000     0.195900000000     0.0611776  
C236     C      0.021500000000     0.488620000000     0.142130000000    -0.0450237  
C237     C      0.998830000000     0.496650000000     0.208040000000    -0.0547476  
C238     C      0.023430000000     0.480880000000     0.103960000000     0.0398199  
C239     C      0.977720000000     0.458070000000     0.099990000000    -0.00599833 
C240     C      0.992360000000     0.459980000000     0.257410000000    -0.0562151  
C241     C      0.873440000000     0.607730000000     0.054910000000    -0.0300636  
C242     C      0.973070000000     0.580640000000     0.026900000000    -0.0306759  
C243     C      0.943110000000     0.526610000000     0.025280000000    -0.00690171 
C244     C      0.985110000000     0.564820000000     0.033430000000    -0.00482844 
C245     C      0.928120000000     0.586580000000     0.072350000000    -0.0544667  
C246     C      0.920520000000     0.606380000000     0.009620000000    -0.0539287  
C247     C      0.936300000000     0.582480000000     0.039690000000     0.0616304  
C248     C      0.932990000000     0.544090000000     0.018960000000    -0.0298703  
C249     C      0.912010000000     0.610180000000     0.042260000000     0.0606111  
C250     C      0.911310000000     0.646460000000     0.063780000000    -0.0430202  
C251     C      0.916090000000     0.600300000000     0.073770000000    -0.056      
C252     C      0.898250000000     0.661790000000     0.060860000000     0.0386409  
C253     C      0.858960000000     0.621060000000     0.049280000000    -0.0076348  
C254     C      0.932600000000     0.592650000000     0.008220000000    -0.0567049  
C255     C      0.339960000000     0.143580000000     0.985330000000    -0.0306136  
C256     C      0.384440000000     0.179530000000     0.801240000000    -0.030202   
C257     C      0.341200000000     0.140270000000     0.765750000000    -0.00680324 
C258     C      0.385370000000     0.174800000000     0.761210000000    -0.00749987 
C259     C      0.364560000000     0.137250000000     0.877320000000    -0.0541632  
C260     C      0.368310000000     0.178160000000     0.913980000000    -0.0535056  
C261     C      0.367250000000     0.157760000000     0.857880000000     0.0611529  
C262     C      0.341800000000     0.146890000000     0.805210000000    -0.0301062  
C263     C      0.366060000000     0.157820000000     0.933400000000     0.0606     
C264     C      0.381020000000     0.150760000000     0.989880000000    -0.0432263  
C265     C      0.363510000000     0.137000000000     0.914620000000    -0.0561081  
C266     C      0.381820000000     0.154890000000     0.030710000000     0.0402702  
C267     C      0.338980000000     0.151300000000     0.023690000000    -0.00408853 
C268     C      0.368480000000     0.178040000000     0.876580000000    -0.0562731  
C269     C      0.342190000000     0.216330000000     0.490990000000    -0.0306221  
C270     C      0.378790000000     0.197030000000     0.314880000000    -0.0297424  
C271     C      0.346610000000     0.203090000000     0.264220000000    -0.00571749 
C272     C      0.378360000000     0.189020000000     0.276100000000    -0.00692054 
C273     C      0.326480000000     0.182430000000     0.374600000000    -0.0542714  
C274     C      0.364470000000     0.206970000000     0.423670000000    -0.0520742  
C275     C      0.350680000000     0.195290000000     0.362240000000     0.0617049  
C276     C      0.350520000000     0.211590000000     0.303180000000    -0.0302128  
C277     C      0.340190000000     0.193960000000     0.436250000000     0.0594555  
C278     C      0.311610000000     0.172950000000     0.486980000000    -0.0435449  
C279     C      0.321150000000     0.182040000000     0.410880000000    -0.0538473  
C280     C      0.309440000000     0.172100000000     0.528390000000     0.0416247  
C281     C      0.348180000000     0.215390000000     0.530350000000    -0.00304712 
C282     C      0.369680000000     0.208290000000     0.387140000000    -0.0563201  
C283     C      0.434990000000     0.043710000000     0.493450000000    -0.0303918  
C284     C      0.413460000000     0.137220000000     0.579450000000    -0.0297354  
C285     C      0.360730000000     0.111910000000     0.592230000000    -0.00666524 
C286     C      0.401100000000     0.152790000000     0.584420000000    -0.00702648 
C287     C      0.407700000000     0.094960000000     0.514400000000    -0.054407   
C288     C      0.433790000000     0.081590000000     0.561310000000    -0.0535442  
C289     C      0.408070000000     0.099950000000     0.550950000000     0.0617385  
C290     C      0.375390000000     0.098580000000     0.586920000000    -0.0299427  
C291     C      0.434040000000     0.077290000000     0.524600000000     0.0607228  
C292     C      0.468680000000     0.085310000000     0.487970000000    -0.0432577  
C293     C      0.420470000000     0.083640000000     0.501230000000    -0.0561127  
C294     C      0.487330000000     0.076800000000     0.480240000000     0.040871   
C295     C      0.450820000000     0.031650000000     0.488500000000    -0.00482336 
C296     C      0.420820000000     0.092720000000     0.574530000000    -0.0568069  
C297     C      0.132070000000     0.398770000000     0.901160000000    -0.0303724  
C298     C      0.029950000000     0.422400000000     0.926440000000    -0.0292402  
C299     C      0.059730000000     0.473040000000     0.953440000000    -0.00612046 
C300     C      0.017260000000     0.434010000000     0.947220000000    -0.0090386  
C301     C      0.077290000000     0.410610000000     0.952350000000    -0.0544778  
C302     C      0.081820000000     0.403410000000     0.879600000000    -0.0537968  
C303     C      0.066880000000     0.419170000000     0.927030000000     0.0616569  
C304     C      0.069690000000     0.459260000000     0.931700000000    -0.0299135  
C305     C      0.092260000000     0.394840000000     0.904980000000     0.0604688  
C306     C      0.096540000000     0.358300000000     0.907680000000    -0.0429463  
C307     C      0.090020000000     0.398710000000     0.941570000000    -0.0560952  
C308     C      0.109460000000     0.345130000000     0.891190000000     0.0393005  
C309     C      0.146550000000     0.389200000000     0.880780000000    -0.00576202 
C310     C      0.069350000000     0.415660000000     0.890420000000    -0.0569228  
C311     C      0.279310000000     0.216030000000     0.708000000000    -0.0303795  
C312     C      0.260480000000     0.310090000000     0.798530000000    -0.0298354  
C313     C      0.207780000000     0.278540000000     0.810140000000    -0.00630917 
C314     C      0.245120000000     0.322640000000     0.804080000000    -0.00647239 
C315     C      0.259450000000     0.271470000000     0.730580000000    -0.0544418  
C316     C      0.285150000000     0.256630000000     0.775910000000    -0.0537802  
C317     C      0.259680000000     0.275470000000     0.767390000000     0.061821   
C318     C      0.225580000000     0.268940000000     0.804520000000    -0.029741   
C319     C      0.284560000000     0.252220000000     0.739100000000     0.0605754  
C320     C      0.316640000000     0.254970000000     0.700940000000    -0.0429405  
C321     C      0.271780000000     0.260000000000     0.716420000000    -0.0560413  
C322     C      0.331580000000     0.242410000000     0.690800000000     0.0396379  
C323     C      0.291550000000     0.200610000000     0.701140000000    -0.00600062 
C324     C      0.272840000000     0.268200000000     0.790080000000    -0.0569481  
C325     C      0.499730000000     0.460060000000     0.672940000000    -0.030453   
C326     C      0.506870000000     0.503560000000     0.856660000000    -0.0301965  
C327     C      0.539090000000     0.489930000000     0.894130000000    -0.00726057 
C328     C      0.504220000000     0.499360000000     0.897070000000    -0.00653026 
C329     C      0.493160000000     0.466370000000     0.786340000000    -0.0543025  
C330     C      0.527320000000     0.504910000000     0.743300000000    -0.0536896  
C331     C      0.513230000000     0.486800000000     0.802250000000     0.0613612  
C332     C      0.539820000000     0.494070000000     0.853740000000    -0.0300784  
C333     C      0.507530000000     0.484230000000     0.727330000000     0.0606939  
C334     C      0.486550000000     0.490100000000     0.677710000000    -0.0429439  
C335     C      0.490070000000     0.465180000000     0.749290000000    -0.0561519  
C336     C      0.488580000000     0.495340000000     0.637330000000     0.0404431  
C337     C      0.503120000000     0.462860000000     0.632500000000    -0.00535062 
C338     C      0.530040000000     0.506430000000     0.780440000000    -0.0565852  
C339     C      0.565400000000     0.527260000000     0.170780000000    -0.0311784  
C340     C      0.516120000000     0.523460000000     0.350290000000    -0.03004    
C341     C      0.511180000000     0.477690000000     0.379630000000    -0.00656977 
C342     C      0.500300000000     0.511770000000     0.383410000000    -0.00702465 
C343     C      0.514180000000     0.501620000000     0.262590000000    -0.0540049  
C344     C      0.561210000000     0.542900000000     0.256440000000    -0.054463   
C345     C      0.527500000000     0.513300000000     0.293520000000     0.0611658  
C346     C      0.526840000000     0.490950000000     0.346880000000    -0.0302621  
C347     C      0.547540000000     0.531760000000     0.225540000000     0.0614613  
C348     C      0.541870000000     0.549060000000     0.170490000000    -0.0443229  
C349     C      0.524150000000     0.510550000000     0.228810000000    -0.0565247  
C350     C      0.555420000000     0.563370000000     0.136920000000     0.0402856  
C351     C      0.579070000000     0.541080000000     0.136800000000    -0.00720256 
C352     C      0.551450000000     0.533640000000     0.290200000000    -0.0563231  
C353     C      0.844510000000     0.232080000000     0.004590000000    -0.0311718  
C354     C      0.850630000000     0.190910000000     0.822550000000    -0.0301131  
C355     C      0.807320000000     0.186560000000     0.787490000000    -0.00686629 
C356     C      0.841250000000     0.176040000000     0.787940000000    -0.00705159 
C357     C      0.825850000000     0.185630000000     0.907560000000    -0.0541288  
C358     C      0.863640000000     0.234550000000     0.917660000000    -0.0543477  
C359     C      0.837370000000     0.200660000000     0.877790000000     0.0612437  
C360     C      0.818040000000     0.201190000000     0.822060000000    -0.030127   
C361     C      0.852640000000     0.219280000000     0.947390000000     0.0615179  
C362     C      0.871640000000     0.214250000000     0.000690000000    -0.0441277  
C363     C      0.833260000000     0.194840000000     0.942140000000    -0.0563992  
C364     C      0.884280000000     0.227290000000     0.035430000000     0.0410679  
C365     C      0.856490000000     0.244810000000     0.040070000000    -0.00751833 
C366     C      0.856020000000     0.225450000000     0.883090000000    -0.0563033  
C367     C      0.810450000000     0.184900000000     0.310440000000    -0.0304463  
C368     C      0.842090000000     0.176160000000     0.496120000000    -0.0301476  
C369     C      0.816660000000     0.198320000000     0.532390000000    -0.0070295  
C370     C      0.850880000000     0.187850000000     0.533030000000    -0.00656957 
C371     C      0.843080000000     0.199870000000     0.414420000000    -0.0541241  
C372     C      0.804460000000     0.154150000000     0.391500000000    -0.0542001  
C373     C      0.827440000000     0.182630000000     0.439700000000     0.061395   
C374     C      0.809670000000     0.186480000000     0.495320000000    -0.030015   
C375     C      0.819640000000     0.171730000000     0.366170000000     0.0610293  
C376     C      0.833230000000     0.162610000000     0.310740000000    -0.0434407  
C377     C      0.839430000000     0.194460000000     0.377980000000    -0.0563178  
C378     C      0.826040000000     0.154380000000     0.271620000000     0.0390894  
C379     C      0.801950000000     0.176720000000     0.272240000000    -0.00640208 
C380     C      0.808420000000     0.159380000000     0.428040000000    -0.0564986  
C381     C      0.152590000000     0.357360000000     0.506220000000    -0.0310853  
C382     C      0.136210000000     0.314220000000     0.692860000000    -0.0298328  
C383     C      0.178940000000     0.356620000000     0.724860000000    -0.00653063 
C384     C      0.145220000000     0.310840000000     0.729300000000    -0.00713153 
C385     C      0.165350000000     0.330940000000     0.608550000000    -0.0538257  
C386     C      0.126230000000     0.337480000000     0.588060000000    -0.0543745  
C387     C      0.150970000000     0.333550000000     0.634830000000     0.0611159  
C388     C      0.167620000000     0.357350000000     0.689040000000    -0.0299006  
C389     C      0.140360000000     0.334430000000     0.561790000000     0.0611812  
C390     C      0.129300000000     0.311880000000     0.505520000000    -0.0439608  
C391     C      0.160280000000     0.331560000000     0.572320000000    -0.0563961  
C392     C      0.119890000000     0.312090000000     0.467790000000     0.0398897  
C393     C      0.143760000000     0.358340000000     0.468370000000    -0.00749045 
C394     C      0.131560000000     0.337260000000     0.624320000000    -0.0564748  
C395     C      0.219020000000     0.355700000000     0.010080000000    -0.0302657  
C396     C      0.189840000000     0.320690000000     0.198380000000    -0.0302709  
C397     C      0.211480000000     0.368130000000     0.235760000000    -0.00734428 
C398     C      0.196430000000     0.322150000000     0.238030000000    -0.00682307 
C399     C      0.221640000000     0.341000000000     0.121840000000    -0.0542884  
C400     C      0.181560000000     0.339870000000     0.087780000000    -0.0536729  
C401     C      0.203860000000     0.342570000000     0.142340000000     0.0611556  
C402     C      0.204760000000     0.365200000000     0.196030000000    -0.0300888  
C403     C      0.199620000000     0.338880000000     0.067210000000     0.0606754  
C404     C      0.189710000000     0.312310000000     0.015540000000    -0.0428595  
C405     C      0.219480000000     0.338890000000     0.084650000000    -0.0562744  
C406     C      0.181750000000     0.309750000000     0.976120000000     0.0403048  
C407     C      0.213110000000     0.357070000000     0.970880000000    -0.00538625 
C408     C      0.183430000000     0.341410000000     0.125030000000    -0.0564783  
C409     C      0.948040000000     0.236570000000     0.215260000000    -0.0302181  
C410     C      0.071350000000     0.326570000000     0.278920000000    -0.0298386  
C411     C      0.084180000000     0.290180000000     0.305090000000    -0.00654658 
C412     C      0.092730000000     0.335090000000     0.305190000000    -0.00733626 
C413     C      0.008550000000     0.280250000000     0.287190000000    -0.0562943  
C414     C      0.006060000000     0.285650000000     0.213360000000    -0.0556414  
C415     C      0.030230000000     0.292160000000     0.267300000000     0.061438   
C416     C      0.063670000000     0.284400000000     0.278320000000    -0.0300099  
C417     C      0.984340000000     0.273840000000     0.233330000000     0.0615568  
C418     C      0.945430000000     0.272900000000     0.229680000000    -0.042918   
C419     C      0.985810000000     0.270950000000     0.270490000000    -0.0541329  
C420     C      0.921820000000     0.264050000000     0.207430000000     0.0385999  
C421     C      0.926600000000     0.226710000000     0.189300000000    -0.00663988 
C422     C      0.028840000000     0.294570000000     0.230040000000    -0.0564742  
C423     C      0.387200000000     0.444920000000     0.490900000000    -0.0303056  
C424     C      0.267860000000     0.355010000000     0.414660000000    -0.0300447  
C425     C      0.247930000000     0.388500000000     0.412400000000    -0.00722483 
C426     C      0.240020000000     0.344070000000     0.412670000000    -0.00711113 
C427     C      0.311380000000     0.390480000000     0.478520000000    -0.0542494  
C428     C      0.347390000000     0.406220000000     0.425540000000    -0.0535449  
C429     C      0.304500000000     0.388010000000     0.442490000000     0.0611761  
C430     C      0.275280000000     0.397190000000     0.414350000000    -0.0299278  
C431     C      0.354350000000     0.409360000000     0.461610000000     0.0602802  
C432     C      0.387400000000     0.406430000000     0.490060000000    -0.0428967  
C433     C      0.336030000000     0.400960000000     0.488120000000    -0.0560312  
C434     C      0.415550000000     0.419380000000     0.493940000000     0.0396541  
C435     C      0.414990000000     0.460920000000     0.491790000000    -0.00540527 
C436     C      0.322690000000     0.395560000000     0.415940000000    -0.0566277  
C437     C      0.550100000000     0.044560000000     0.635980000000    -0.0301069  
C438     C      0.529630000000     0.004470000000     0.824260000000    -0.0305767  
C439     C      0.550840000000     0.052580000000     0.859560000000    -0.00659933 
C440     C      0.537790000000     0.007200000000     0.863450000000    -0.00690472 
C441     C      0.558220000000     0.026900000000     0.744290000000    -0.0545418  
C442     C      0.514980000000     0.021810000000     0.715340000000    -0.0537758  
C443     C      0.540040000000     0.025620000000     0.767140000000     0.0614263  
C444     C      0.542320000000     0.048570000000     0.820710000000    -0.0299312  
C445     C      0.533490000000     0.023890000000     0.692430000000     0.0606096  
C446     C      0.525250000000     0.000070000000     0.638310000000    -0.0431872  
C447     C      0.554940000000     0.025770000000     0.707260000000    -0.0560647  
C448     C      0.516710000000     0.998140000000     0.599310000000     0.0399164  
C449     C      0.542850000000     0.046130000000     0.597600000000    -0.00678563 
C450     C      0.518040000000     0.022410000000     0.752400000000    -0.0566396  
C451     C      0.496070000000     0.046110000000     0.127270000000    -0.0311915  
C452     C      0.492310000000     0.001340000000     0.310590000000    -0.0302492  
C453     C      0.534590000000     0.043640000000     0.343260000000    -0.00656301 
C454     C      0.502800000000     0.997700000000     0.345460000000    -0.00688316 
C455     C      0.517140000000     0.021260000000     0.224790000000    -0.0539393  
C456     C      0.476140000000     0.026460000000     0.212370000000    -0.0543439  
C457     C      0.504090000000     0.023020000000     0.253840000000     0.0611909  
C458     C      0.522500000000     0.045280000000     0.308630000000    -0.0301998  
C459     C      0.488790000000     0.024000000000     0.183350000000     0.0614548  
C460     C      0.473990000000     0.000440000000     0.128260000000    -0.0445808  
C461     C      0.509740000000     0.021940000000     0.189780000000    -0.0563494  
C462     C      0.461650000000     0.999790000000     0.092710000000     0.0411881  
C463     C      0.484310000000     0.045940000000     0.091210000000    -0.00745182 
C464     C      0.483790000000     0.026210000000     0.247370000000    -0.0562798  
C465     C      0.741440000000     0.139290000000     0.073820000000    -0.0312816  
C466     C      0.609780000000     0.056630000000     0.049520000000    -0.0300985  
C467     C      0.591570000000     0.086850000000     0.016400000000    -0.006022   
C468     C      0.582070000000     0.046320000000     0.047010000000    -0.00738163 
C469     C      0.659590000000     0.119750000000     0.075970000000    -0.0535222  
C470     C      0.686850000000     0.095700000000     0.070530000000    -0.0534489  
C471     C      0.648530000000     0.095790000000     0.061270000000     0.06038    
C472     C      0.618670000000     0.094430000000     0.018620000000    -0.0304399  
C473     C      0.697700000000     0.119420000000     0.086060000000     0.0600838  
C474     C      0.727960000000     0.148420000000     0.129580000000    -0.042841   
C475     C      0.683980000000     0.131730000000     0.087310000000    -0.0550498  
C476     C      0.751830000000     0.154250000000     0.148470000000     0.0373559  
C477     C      0.765620000000     0.144070000000     0.090750000000    -0.00570841 
C478     C      0.662820000000     0.084210000000     0.057480000000    -0.0551818  
C479     C      0.201160000000     0.821740000000     0.634720000000    -0.0315314  
C480     C      0.191540000000     0.842600000000     0.448470000000    -0.0303286  
C481     C      0.143050000000     0.828640000000     0.420790000000    -0.00738071 
C482     C      0.185150000000     0.833240000000     0.410110000000    -0.00593864 
C483     C      0.182380000000     0.816660000000     0.523560000000    -0.0551151  
C484     C      0.181690000000     0.853200000000     0.565850000000    -0.0515664  
C485     C      0.175210000000     0.832610000000     0.508270000000     0.062053   
C486     C      0.151290000000     0.837100000000     0.459310000000    -0.0301119  
C487     C      0.190050000000     0.838000000000     0.581010000000     0.0590416  
C488     C      0.217200000000     0.866100000000     0.627770000000    -0.0437448  
C489     C      0.189930000000     0.819340000000     0.559170000000    -0.0531913  
C490     C      0.214990000000     0.870610000000     0.667640000000     0.0425049  
C491     C      0.210990000000     0.828020000000     0.673420000000    -0.00469953 
C492     C      0.175200000000     0.851200000000     0.529760000000    -0.0568241  
C493     C      0.140970000000     0.853990000000     0.935450000000    -0.0303703  
C494     C      0.158420000000     0.837180000000     0.122590000000    -0.0301256  
C495     C      0.133720000000     0.854850000000     0.170110000000    -0.00714623 
C496     C      0.168550000000     0.845740000000     0.160150000000    -0.00643275 
C497     C      0.158950000000     0.866760000000     0.048790000000    -0.0544273  
C498     C      0.121630000000     0.822310000000     0.020290000000    -0.0537925  
C499     C      0.142410000000     0.848230000000     0.071870000000     0.0614056  
C500     C      0.125710000000     0.846370000000     0.131530000000    -0.0301233  
C501     C      0.138650000000     0.840560000000     0.997220000000     0.0602008  
C502     C      0.157700000000     0.827990000000     0.953060000000    -0.0429515  
C503     C      0.157340000000     0.862960000000     0.011900000000    -0.0558758  
C504     C      0.155690000000     0.817890000000     0.915000000000     0.0390292  
C505     C      0.137260000000     0.844670000000     0.896930000000    -0.00764379 
C506     C      0.123560000000     0.825920000000     0.057310000000    -0.0567768  
C507     C      0.283350000000     0.886000000000     0.859880000000    -0.0301808  
C508     C      0.405250000000     0.991930000000     0.902820000000    -0.0297058  
C509     C      0.425350000000     0.963610000000     0.936840000000    -0.00660034 
C510     C      0.427420000000     0.005530000000     0.927680000000    -0.00751519 
C511     C      0.345460000000     0.942580000000     0.918660000000    -0.054245   
C512     C      0.340660000000     0.936860000000     0.844440000000    -0.0536558  
C513     C      0.366490000000     0.953250000000     0.897260000000     0.0613006  
C514     C      0.403660000000     0.952590000000     0.911040000000    -0.0299725  
C515     C      0.319600000000     0.926160000000     0.865880000000     0.0601957  
C516     C      0.280150000000     0.922890000000     0.856500000000    -0.0429776  
C517     C      0.322230000000     0.929100000000     0.903280000000    -0.0559846  
C518     C      0.256160000000     0.909880000000     0.834750000000     0.0393369  
C519     C      0.261170000000     0.870970000000     0.835920000000    -0.00642392 
C520     C      0.363960000000     0.950210000000     0.859900000000    -0.056636   
C521     C      0.825950000000     0.643830000000     0.777110000000    -0.0319037  
C522     C      0.828640000000     0.699370000000     0.951230000000    -0.0304875  
C523     C      0.788450000000     0.657120000000     0.987260000000    -0.00699507 
C524     C      0.819170000000     0.702540000000     0.987370000000    -0.0067208  
C525     C      0.802310000000     0.675160000000     0.866490000000    -0.0541972  
C526     C      0.844390000000     0.671730000000     0.855300000000    -0.0543037  
C527     C      0.816510000000     0.675900000000     0.895870000000     0.0609354  
C528     C      0.798770000000     0.654730000000     0.951390000000    -0.0302378  
C529     C      0.830550000000     0.671610000000     0.825910000000     0.0615368  
C530     C      0.838870000000     0.687330000000     0.764250000000    -0.0352204  
C531     C      0.809050000000     0.672720000000     0.831740000000    -0.0566623  
C532     C      0.854260000000     0.687720000000     0.732540000000     0.0111164  
C533     C      0.839760000000     0.641900000000     0.744540000000    -0.00314244 
C534     C      0.837350000000     0.673540000000     0.890000000000    -0.0562854  
C535     C      0.855240000000     0.644620000000     0.448130000000    -0.0303117  
C536     C      0.864930000000     0.686860000000     0.262630000000    -0.0301052  
C537     C      0.839210000000     0.640480000000     0.222770000000    -0.00729369 
C538     C      0.870650000000     0.686240000000     0.223010000000    -0.00696354 
C539     C      0.874650000000     0.663650000000     0.338040000000    -0.0543213  
C540     C      0.835650000000     0.664630000000     0.372140000000    -0.0537034  
C541     C      0.855910000000     0.663350000000     0.317460000000     0.0613361  
C542     C      0.834880000000     0.642670000000     0.262490000000    -0.0299296  
C543     C      0.854050000000     0.664240000000     0.392760000000     0.060528   
C544     C      0.869790000000     0.688460000000     0.446580000000    -0.0429124  
C545     C      0.873960000000     0.664400000000     0.375320000000    -0.0560662  
C546     C      0.864250000000     0.689490000000     0.486430000000     0.0398425  
C547     C      0.847760000000     0.642020000000     0.487300000000    -0.00615695 
C548     C      0.836660000000     0.664490000000     0.334810000000    -0.0565325  
C549     C      0.736150000000     0.593680000000     0.580610000000    -0.0301617  
C550     C      0.611190000000     0.567700000000     0.540190000000    -0.0299489  
C551     C      0.590270000000     0.516350000000     0.516410000000    -0.00709308 
C552     C      0.587580000000     0.555850000000     0.518000000000    -0.00747083 
C553     C      0.670730000000     0.579160000000     0.522360000000    -0.0543171  
C554     C      0.678760000000     0.585540000000     0.596090000000    -0.0537273  
C555     C      0.650630000000     0.569790000000     0.545560000000     0.0611119  
C556     C      0.613590000000     0.529960000000     0.538950000000    -0.0299666  
C557     C      0.698890000000     0.595020000000     0.572860000000     0.0600682  
C558     C      0.737970000000     0.633190000000     0.574610000000    -0.0429098  
C559     C      0.694630000000     0.591550000000     0.535740000000    -0.0559383  
C560     C      0.763100000000     0.647230000000     0.593460000000     0.0383738  
C561     C      0.759800000000     0.604760000000     0.602240000000    -0.00759754 
C562     C      0.654810000000     0.572920000000     0.582690000000    -0.0566463  
C563     C      0.962890000000     0.731900000000     0.636470000000    -0.0306681  
C564     C      0.074590000000     0.756470000000     0.731940000000    -0.0298983  
C565     C      0.099660000000     0.810520000000     0.725690000000    -0.00704774 
C566     C      0.102450000000     0.771370000000     0.736800000000    -0.00702856 
C567     C      0.036780000000     0.749430000000     0.659090000000    -0.0541063  
C568     C      0.997840000000     0.732350000000     0.707450000000    -0.0518555  
C569     C      0.041700000000     0.754460000000     0.695580000000     0.0614666  
C570     C      0.072000000000     0.793500000000     0.721660000000    -0.0296826  
C571     C      0.992900000000     0.727660000000     0.670860000000     0.0616509  
C572     C      0.960510000000     0.692200000000     0.639680000000    -0.0430088  
C573     C      0.012640000000     0.736190000000     0.646710000000    -0.0580451  
C574     C      0.932660000000     0.677890000000     0.632070000000     0.039752   
C575     C      0.935370000000     0.721100000000     0.632680000000    -0.00452329 
C576     C      0.022010000000     0.745650000000     0.719820000000    -0.0587241  
Cu1      Cu     0.850640000000     0.683730000000     0.613110000000     0.840859   
Cu2      Cu     0.846030000000     0.641730000000     0.613540000000     0.841273   
Cu3      Cu     0.176860000000     0.858890000000     0.782610000000     0.837545   
Cu4      Cu     0.180220000000     0.821410000000     0.792040000000     0.844317   
Cu5      Cu     0.510050000000     0.046090000000     0.970410000000     0.840262   
Cu6      Cu     0.506370000000     0.005210000000     0.981670000000     0.841055   
Cu7      Cu     0.173050000000     0.361670000000     0.349590000000     0.838832   
Cu8      Cu     0.163170000000     0.318050000000     0.354540000000     0.839923   
Cu9      Cu     0.838650000000     0.217570000000     0.162550000000     0.844282   
Cu10     Cu     0.845260000000     0.182820000000     0.146890000000     0.839877   
Cu11     Cu     0.500060000000     0.506470000000     0.511090000000     0.841784   
Cu12     Cu     0.503060000000     0.468440000000     0.506660000000     0.839221   
Cu13     Cu     0.160790000000     0.312630000000     0.853860000000     0.842062   
Cu14     Cu     0.196000000000     0.355140000000     0.848040000000     0.841842   
Cu15     Cu     0.326680000000     0.157110000000     0.646650000000     0.845295   
Cu16     Cu     0.366990000000     0.195480000000     0.645130000000     0.838391   
Cu17     Cu     0.980770000000     0.482550000000     0.978190000000     0.843224   
Cu18     Cu     0.021760000000     0.518840000000     0.988450000000     0.842408   
Cu19     Cu     0.656100000000     0.829370000000     0.302170000000     0.841877   
Cu20     Cu     0.698990000000     0.863000000000     0.308630000000     0.841786   
Cu21     Cu     0.811300000000     0.650510000000     0.107610000000     0.840261   
Cu22     Cu     0.846130000000     0.693370000000     0.104330000000     0.843846   
Cu23     Cu     0.505560000000     0.000870000000     0.473150000000     0.842539   
Cu24     Cu     0.540590000000     0.043690000000     0.470600000000     0.842544   
Cu25     Cu     0.382250000000     0.176870000000     0.152410000000     0.843114   
Cu26     Cu     0.344410000000     0.178720000000     0.143470000000     0.838305   
Cu27     Cu     0.564010000000     0.523820000000     0.011560000000     0.838727   
Cu28     Cu     0.526210000000     0.526160000000     0.017660000000     0.845609   
Cu29     Cu     0.174270000000     0.837290000000     0.285350000000     0.847023   
Cu30     Cu     0.138960000000     0.843450000000     0.295680000000     0.835579   
Cu31     Cu     0.020670000000     0.519630000000     0.484930000000     0.842037   
Cu32     Cu     0.979150000000     0.514020000000     0.479910000000     0.840501   
Cu33     Cu     0.847210000000     0.184700000000     0.660430000000     0.842645   
Cu34     Cu     0.810320000000     0.189020000000     0.659470000000     0.840161   
Cu35     Cu     0.702940000000     0.855550000000     0.807310000000     0.839808   
Cu36     Cu     0.659840000000     0.845520000000     0.803220000000     0.840892   
H1       H      0.755990000000     0.051140000000     0.742140000000     0.0410037  
H2       H      0.681840000000     0.956280000000     0.735760000000     0.0344703  
H3       H      0.754650000000     0.970310000000     0.729970000000     0.0390522  
H4       H      0.752370000000     0.094350000000     0.629220000000     0.0371688  
H5       H      0.682310000000     0.930520000000     0.782030000000     0.0393243  
H6       H      0.792180000000     0.060860000000     0.667150000000     0.0343637  
H7       H      0.728090000000     0.066610000000     0.677170000000     0.0344284  
H8       H      0.817350000000     0.106270000000     0.655700000000     0.0411238  
H9       H      0.738910000000     0.009980000000     0.769980000000     0.0449826  
H10      H      0.667380000000     0.910370000000     0.745110000000     0.0399556  
H11      H      0.734660000000     0.016830000000     0.638310000000     0.0441443  
H12      H      0.690650000000     0.941640000000     0.701960000000     0.0358461  
H13      H      0.752740000000     0.112590000000     0.666710000000     0.0406222  
H14      H      0.739960000000     0.939710000000     0.774300000000     0.0317407  
H15      H      0.790420000000     0.079290000000     0.703050000000     0.0385238  
H16      H      0.752530000000     0.082560000000     0.709120000000     0.0378895  
H17      H      0.717680000000     0.975760000000     0.666000000000     0.0400113  
H18      H      0.732230000000     0.951170000000     0.697320000000     0.0413489  
H19      H      0.794260000000     0.090100000000     0.622370000000     0.036592   
H20      H      0.759540000000     0.915600000000     0.745430000000     0.0339716  
H21      H      0.907220000000     0.314650000000     0.567290000000     0.0411603  
H22      H      0.915110000000     0.399420000000     0.550060000000     0.0343007  
H23      H      0.984650000000     0.406340000000     0.566470000000     0.0396244  
H24      H      0.862890000000     0.286470000000     0.687750000000     0.0365644  
H25      H      0.939430000000     0.423360000000     0.500260000000     0.0384566  
H26      H      0.930500000000     0.305160000000     0.642090000000     0.0347116  
H27      H      0.866620000000     0.311620000000     0.635680000000     0.0342499  
H28      H      0.905240000000     0.260590000000     0.660380000000     0.0410524  
H29      H      0.928570000000     0.353020000000     0.531970000000     0.0445955  
H30      H      0.934780000000     0.443320000000     0.529690000000     0.0410029  
H31      H      0.921430000000     0.357940000000     0.663430000000     0.0442092  
H32      H      0.936010000000     0.421380000000     0.582230000000     0.0375749  
H33      H      0.840640000000     0.267590000000     0.654710000000     0.0409025  
H34      H      0.992740000000     0.432220000000     0.515940000000     0.0299758  
H35      H      0.907310000000     0.286460000000     0.609690000000     0.0383734  
H36      H      0.869380000000     0.290270000000     0.605980000000     0.0386926  
H37      H      0.942010000000     0.396210000000     0.628160000000     0.0403926  
H38      H      0.974890000000     0.423630000000     0.593650000000     0.0421326  
H39      H      0.903960000000     0.281850000000     0.691570000000     0.0365689  
H40      H      0.034810000000     0.466170000000     0.541560000000     0.0335873  
H41      H      0.089780000000     0.717030000000     0.387180000000     0.0411791  
H42      H      0.011410000000     0.626930000000     0.410430000000     0.0339608  
H43      H      0.080340000000     0.631880000000     0.397100000000     0.0391348  
H44      H      0.074900000000     0.746090000000     0.268420000000     0.0363702  
H45      H      0.015590000000     0.606100000000     0.461640000000     0.037951   
H46      H      0.116200000000     0.715050000000     0.305660000000     0.0344633  
H47      H      0.055360000000     0.725350000000     0.324100000000     0.0342979  
H48      H      0.140680000000     0.758240000000     0.282290000000     0.0409331  
H49      H      0.073590000000     0.680230000000     0.425900000000     0.0445236  
H50      H      0.993580000000     0.583160000000     0.432170000000     0.0427328  
H51      H      0.055700000000     0.669920000000     0.295840000000     0.0440798  
H52      H      0.014660000000     0.606450000000     0.379670000000     0.0365824  
H53      H      0.079020000000     0.768920000000     0.301300000000     0.0408198  
H54      H      0.065750000000     0.607340000000     0.449590000000     0.0302242  
H55      H      0.119490000000     0.738010000000     0.338110000000     0.0390621  
H56      H      0.083100000000     0.744170000000     0.349160000000     0.0384171  
H57      H      0.039780000000     0.633170000000     0.334310000000     0.0401651  
H58      H      0.054560000000     0.610620000000     0.370410000000     0.0422264  
H59      H      0.113470000000     0.739360000000     0.256640000000     0.0362568  
H60      H      0.082250000000     0.578280000000     0.428540000000     0.0336867  
H61      H      0.624480000000     0.697060000000     0.852610000000     0.0406247  
H62      H      0.636350000000     0.640120000000     0.946510000000     0.0343243  
H63      H      0.571780000000     0.644370000000     0.957270000000     0.0391755  
H64      H      0.686660000000     0.787310000000     0.889230000000     0.0391711  
H65      H      0.606080000000     0.597700000000     0.944720000000     0.0395732  
H66      H      0.608950000000     0.734800000000     0.889450000000     0.0344557  
H67      H      0.681020000000     0.746360000000     0.882280000000     0.0341719  
H68      H      0.621160000000     0.772160000000     0.850030000000     0.0405401  
H69      H      0.606410000000     0.654840000000     0.877280000000     0.0445113  
H70      H      0.617860000000     0.602970000000     0.989210000000     0.0392007  
H71      H      0.646650000000     0.727520000000     0.958470000000     0.0445189  
H72      H      0.626830000000     0.645150000000     0.989560000000     0.0361697  
H73      H      0.693190000000     0.784110000000     0.843540000000     0.039585   
H74      H      0.553480000000     0.601490000000     0.959950000000     0.0311258  
H75      H      0.621400000000     0.733610000000     0.846590000000     0.036558   
H76      H      0.662670000000     0.740230000000     0.842530000000     0.036926   
H77      H      0.629520000000     0.685520000000     0.982960000000     0.0401397  
H78      H      0.591670000000     0.649850000000     0.994690000000     0.0411046  
H79      H      0.634440000000     0.778910000000     0.893820000000     0.0381386  
H80      H      0.527560000000     0.596060000000     0.016860000000     0.0351613  
H81      H      0.240500000000     0.972180000000     0.204730000000     0.0410197  
H82      H      0.262840000000     0.063810000000     0.199520000000     0.0342385  
H83      H      0.325000000000     0.055770000000     0.214980000000     0.0393227  
H84      H      0.195680000000     0.939120000000     0.324250000000     0.037159   
H85      H      0.290820000000     0.087960000000     0.152870000000     0.0387028  
H86      H      0.262240000000     0.956220000000     0.274870000000     0.0345356  
H87      H      0.201350000000     0.967890000000     0.276210000000     0.0342075  
H88      H      0.234960000000     0.911250000000     0.288720000000     0.0410234  
H89      H      0.266430000000     0.011950000000     0.174320000000     0.0445368  
H90      H      0.289670000000     0.108560000000     0.185220000000     0.0410778  
H91      H      0.258130000000     0.009840000000     0.306380000000     0.0442713  
H92      H      0.284600000000     0.081090000000     0.234280000000     0.0375312  
H93      H      0.173180000000     0.922980000000     0.290020000000     0.040346   
H94      H      0.339040000000     0.085490000000     0.168440000000     0.030166   
H95      H      0.238270000000     0.940410000000     0.242160000000     0.0383597  
H96      H      0.202360000000     0.947450000000     0.242860000000     0.038263   
H97      H      0.283220000000     0.049640000000     0.276030000000     0.040447   
H98      H      0.318950000000     0.074660000000     0.244930000000     0.0418139  
H99      H      0.235510000000     0.931540000000     0.323220000000     0.0364039  
H100     H      0.382090000000     0.111840000000     0.197860000000     0.0337743  
H101     H      0.474480000000     0.385050000000     0.125400000000     0.0404327  
H102     H      0.396330000000     0.299500000000     0.097660000000     0.0344457  
H103     H      0.462280000000     0.297330000000     0.102040000000     0.0390183  
H104     H      0.473430000000     0.436230000000     0.019900000000     0.0387681  
H105     H      0.387100000000     0.267570000000     0.140030000000     0.0386008  
H106     H      0.515800000000     0.402340000000     0.056460000000     0.0341397  
H107     H      0.450370000000     0.405560000000     0.064040000000     0.034347   
H108     H      0.540120000000     0.449250000000     0.052230000000     0.0394097  
H109     H      0.452260000000     0.341500000000     0.145250000000     0.0445219  
H110     H      0.372440000000     0.252630000000     0.099190000000     0.0405683  
H111     H      0.460480000000     0.360970000000     0.015590000000     0.0445868  
H112     H      0.403740000000     0.284180000000     0.063080000000     0.0366962  
H113     H      0.475330000000     0.452560000000     0.060250000000     0.0399946  
H114     H      0.437960000000     0.263590000000     0.139640000000     0.0310079  
H115     H      0.511260000000     0.418450000000     0.093080000000     0.0361604  
H116     H      0.473960000000     0.420240000000     0.097450000000     0.0360443  
H117     H      0.438610000000     0.317570000000     0.035250000000     0.0403805  
H118     H      0.442060000000     0.284850000000     0.064340000000     0.0417663  
H119     H      0.521690000000     0.433630000000     0.014010000000     0.0388434  
H120     H      0.452300000000     0.234950000000     0.110450000000     0.0340261  
H121     H      0.674370000000     0.849900000000     0.593510000000     0.0410647  
H122     H      0.715030000000     0.843490000000     0.481360000000     0.0343462  
H123     H      0.638750000000     0.793900000000     0.475310000000     0.0392411  
H124     H      0.697800000000     0.805820000000     0.690530000000     0.0370894  
H125     H      0.705780000000     0.857870000000     0.429090000000     0.0415882  
H126     H      0.636600000000     0.799880000000     0.636410000000     0.0345815  
H127     H      0.713670000000     0.829790000000     0.635850000000     0.0342473  
H128     H      0.637630000000     0.808560000000     0.701940000000     0.0410646  
H129     H      0.674200000000     0.852620000000     0.528090000000     0.0449859  
H130     H      0.716920000000     0.838290000000     0.413200000000     0.0379869  
H131     H      0.677780000000     0.782450000000     0.585490000000     0.0439953  
H132     H      0.703070000000     0.812320000000     0.464970000000     0.0364575  
H133     H      0.715620000000     0.838310000000     0.701290000000     0.0409147  
H134     H      0.641000000000     0.809190000000     0.419050000000     0.0323871  
H135     H      0.656130000000     0.832220000000     0.647590000000     0.0383543  
H136     H      0.701580000000     0.849830000000     0.647130000000     0.0392719  
H137     H      0.679110000000     0.785970000000     0.520200000000     0.0401981  
H138     H      0.660190000000     0.783570000000     0.466950000000     0.0400854  
H139     H      0.647230000000     0.786590000000     0.691180000000     0.0365002  
H140     H      0.623420000000     0.768830000000     0.381790000000     0.0348772  
H141     H      0.680590000000     0.843730000000     0.088840000000     0.040966   
H142     H      0.646320000000     0.868470000000     0.973590000000     0.0347538  
H143     H      0.722230000000     0.894030000000     0.978920000000     0.0388515  
H144     H      0.646760000000     0.872590000000     0.187050000000     0.037177   
H145     H      0.649140000000     0.852520000000     0.919270000000     0.0404164  
H146     H      0.716030000000     0.901490000000     0.136620000000     0.0343783  
H147     H      0.639530000000     0.851320000000     0.130400000000     0.0346375  
H148     H      0.715800000000     0.892150000000     0.201650000000     0.0405616  
H149     H      0.682530000000     0.843560000000     0.023360000000     0.0451905  
H150     H      0.654010000000     0.882160000000     0.905920000000     0.037729   
H151     H      0.680260000000     0.912940000000     0.085340000000     0.0442558  
H152     H      0.668540000000     0.899930000000     0.962200000000     0.0347852  
H153     H      0.638610000000     0.840960000000     0.195390000000     0.0410837  
H154     H      0.716170000000     0.875850000000     0.923530000000     0.0327811  
H155     H      0.704490000000     0.868940000000     0.145400000000     0.0384345  
H156     H      0.659660000000     0.839510000000     0.141850000000     0.0377448  
H157     H      0.683520000000     0.913440000000     0.019970000000     0.0402919  
H158     H      0.710770000000     0.914310000000     0.967020000000     0.0412257  
H159     H      0.697980000000     0.906590000000     0.190900000000     0.0377615  
H160     H      0.749160000000     0.912770000000     0.886620000000     0.036375   
H161     H      0.743360000000     0.740230000000     0.145480000000     0.0406995  
H162     H      0.679010000000     0.741460000000     0.236730000000     0.0342976  
H163     H      0.752800000000     0.798500000000     0.246680000000     0.0390179  
H164     H      0.760880000000     0.671070000000     0.185810000000     0.0386754  
H165     H      0.675510000000     0.777590000000     0.232790000000     0.0393079  
H166     H      0.793190000000     0.750740000000     0.187630000000     0.0343659  
H167     H      0.728830000000     0.680730000000     0.175570000000     0.0342387  
H168     H      0.816840000000     0.735780000000     0.151580000000     0.0408661  
H169     H      0.724780000000     0.764230000000     0.167840000000     0.0445032  
H170     H      0.666570000000     0.766180000000     0.277250000000     0.0397854  
H171     H      0.744990000000     0.715640000000     0.252730000000     0.0443051  
H172     H      0.693680000000     0.749670000000     0.279850000000     0.0366083  
H173     H      0.752750000000     0.665590000000     0.139390000000     0.0394553  
H174     H      0.735250000000     0.823630000000     0.248130000000     0.0307127  
H175     H      0.780900000000     0.739540000000     0.143630000000     0.0369489  
H176     H      0.743830000000     0.699410000000     0.136770000000     0.0371087  
H177     H      0.725500000000     0.738640000000     0.274860000000     0.0402599  
H178     H      0.736100000000     0.780140000000     0.284550000000     0.0413326  
H179     H      0.806820000000     0.721220000000     0.194390000000     0.0372714  
H180     H      0.759820000000     0.848510000000     0.303970000000     0.0336545  
H181     H      0.598770000000     0.969400000000     0.371660000000     0.0410285  
H182     H      0.675500000000     0.952330000000     0.366420000000     0.0344475  
H183     H      0.603050000000     0.892270000000     0.375480000000     0.039118   
H184     H      0.604610000000     0.013820000000     0.487470000000     0.0375976  
H185     H      0.672180000000     0.925400000000     0.318570000000     0.0380764  
H186     H      0.566990000000     0.939950000000     0.449770000000     0.0343829  
H187     H      0.627260000000     0.012780000000     0.435700000000     0.0344688  
H188     H      0.540110000000     0.957010000000     0.466690000000     0.0413012  
H189     H      0.616010000000     0.947250000000     0.339410000000     0.0446411  
H190     H      0.690300000000     0.922360000000     0.352850000000     0.0410097  
H191     H      0.625920000000     0.957200000000     0.471010000000     0.0443275  
H192     H      0.668050000000     0.928640000000     0.399750000000     0.0368014  
H193     H      0.600790000000     0.030920000000     0.451680000000     0.0407773  
H194     H      0.617810000000     0.878340000000     0.328070000000     0.0304997  
H195     H      0.565290000000     0.959470000000     0.415410000000     0.0384999  
H196     H      0.600900000000     0.002400000000     0.406980000000     0.0378273  
H197     H      0.642880000000     0.934860000000     0.439000000000     0.0403267  
H198     H      0.626370000000     0.895490000000     0.406330000000     0.0423363  
H199     H      0.565250000000     0.965750000000     0.496930000000     0.0374732  
H200     H      0.596840000000     0.833200000000     0.353710000000     0.0335431  
H201     H      0.005240000000     0.575000000000     0.702250000000     0.0399737  
H202     H      0.962300000000     0.511550000000     0.812440000000     0.034499   
H203     H      0.039540000000     0.556510000000     0.811400000000     0.0391033  
H204     H      0.967750000000     0.517780000000     0.597640000000     0.0411329  
H205     H      0.974080000000     0.531400000000     0.870240000000     0.0367155  
H206     H      0.040400000000     0.552210000000     0.658160000000     0.0341317  
H207     H      0.966240000000     0.534010000000     0.652780000000     0.0344809  
H208     H      0.043640000000     0.563060000000     0.590510000000     0.0369422  
H209     H      0.004020000000     0.573040000000     0.767920000000     0.0436853  
H210     H      0.963300000000     0.498920000000     0.875140000000     0.0411645  
H211     H      0.998530000000     0.502520000000     0.698290000000     0.0453903  
H212     H      0.980880000000     0.497190000000     0.818380000000     0.0382246  
H213     H      0.974970000000     0.548420000000     0.585550000000     0.03773    
H214     H      0.027900000000     0.561220000000     0.870760000000     0.0292588  
H215     H      0.031920000000     0.574690000000     0.644650000000     0.0351555  
H216     H      0.990710000000     0.564780000000     0.642560000000     0.0344667  
H217     H      0.998550000000     0.501030000000     0.763580000000     0.0406136  
H218     H      0.025780000000     0.523310000000     0.815720000000     0.0427786  
H219     H      0.030100000000     0.531300000000     0.603590000000     0.0424715  
H220     H      0.066630000000     0.562320000000     0.898900000000     0.034233   
H221     H      0.989570000000     0.445510000000     0.276130000000     0.0408091  
H222     H      0.959700000000     0.451510000000     0.151180000000     0.0345654  
H223     H      0.037260000000     0.490470000000     0.158120000000     0.0404954  
H224     H      0.972550000000     0.503900000000     0.355840000000     0.0407821  
H225     H      0.976140000000     0.439420000000     0.100780000000     0.0373301  
H226     H      0.032320000000     0.494300000000     0.312900000000     0.0345203  
H227     H      0.957910000000     0.475490000000     0.307370000000     0.0342774  
H228     H      0.028420000000     0.490880000000     0.381110000000     0.0397816  
H229     H      0.991160000000     0.438370000000     0.211840000000     0.0443736  
H230     H      0.961620000000     0.456360000000     0.085200000000     0.0401988  
H231     H      0.000630000000     0.518480000000     0.253590000000     0.043304   
H232     H      0.975990000000     0.483710000000     0.137690000000     0.0394459  
H233     H      0.956100000000     0.473690000000     0.375600000000     0.038453   
H234     H      0.023580000000     0.463100000000     0.106280000000     0.0266624  
H235     H      0.008520000000     0.465230000000     0.330630000000     0.0351257  
H236     H      0.966600000000     0.454740000000     0.327710000000     0.0365268  
H237     H      0.001060000000     0.510930000000     0.189350000000     0.0398502  
H238     H      0.022500000000     0.507030000000     0.141310000000     0.0452073  
H239     H      0.030090000000     0.517760000000     0.360940000000     0.0404617  
H240     H      0.058500000000     0.491700000000     0.058510000000     0.0357976  
H241     H      0.938720000000     0.589690000000     0.982630000000     0.0408124  
H242     H      0.864420000000     0.590100000000     0.039360000000     0.0341697  
H243     H      0.930470000000     0.658040000000     0.054010000000     0.0395412  
H244     H      0.939300000000     0.519970000000     0.053420000000     0.0370879  
H245     H      0.857350000000     0.623260000000     0.020060000000     0.0361028  
H246     H      0.983550000000     0.598370000000     0.041920000000     0.0349324  
H247     H      0.913550000000     0.534570000000     0.027940000000     0.0341961  
H248     H      0.003670000000     0.574410000000     0.021200000000     0.0392037  
H249     H      0.917520000000     0.613830000000     0.985180000000     0.0441281  
H250     H      0.840110000000     0.608870000000     0.059620000000     0.0414229  
H251     H      0.930800000000     0.578820000000     0.096720000000     0.0445097  
H252     H      0.872850000000     0.602990000000     0.083750000000     0.0384606  
H253     H      0.933040000000     0.510140000000     0.007670000000     0.0406675  
H254     H      0.901620000000     0.670000000000     0.033600000000     0.028545   
H255     H      0.974080000000     0.585140000000     0.997900000000     0.0378558  
H256     H      0.933410000000     0.547960000000     0.989800000000     0.0374496  
H257     H      0.909700000000     0.602890000000     0.099370000000     0.0406481  
H258     H      0.912150000000     0.641920000000     0.092410000000     0.0429434  
H259     H      0.987440000000     0.563680000000     0.062710000000     0.0377254  
H260     H      0.919960000000     0.709020000000     0.075590000000     0.0339336  
H261     H      0.369510000000     0.193750000000     0.862540000000     0.0408899  
H262     H      0.327060000000     0.146860000000     0.968960000000     0.0342255  
H263     H      0.399980000000     0.161690000000     0.979140000000     0.0395111  
H264     H      0.344460000000     0.124300000000     0.763590000000     0.0375894  
H265     H      0.337950000000     0.168680000000     0.023030000000     0.0415718  
H266     H      0.403050000000     0.186560000000     0.812790000000     0.034559   
H267     H      0.328520000000     0.129780000000     0.819800000000     0.0337952  
H268     H      0.397280000000     0.192840000000     0.747690000000     0.0408781  
H269     H      0.369550000000     0.194010000000     0.927940000000     0.0450783  
H270     H      0.321760000000     0.136900000000     0.036500000000     0.0367497  
H271     H      0.362760000000     0.121160000000     0.863360000000     0.0438186  
H272     H      0.333630000000     0.123330000000     0.984220000000     0.0367012  
H273     H      0.322550000000     0.134220000000     0.755190000000     0.0405565  
H274     H      0.398530000000     0.173010000000     0.036560000000     0.0326402  
H275     H      0.379300000000     0.194150000000     0.804310000000     0.0375071  
H276     H      0.335900000000     0.160970000000     0.808320000000     0.0388449  
H277     H      0.360610000000     0.120490000000     0.928530000000     0.0402457  
H278     H      0.374620000000     0.130860000000     0.984160000000     0.0398917  
H279     H      0.394040000000     0.163130000000     0.757810000000     0.0369506  
H280     H      0.407170000000     0.142520000000     0.072190000000     0.0348884  
H281     H      0.388610000000     0.218880000000     0.378830000000     0.0402749  
H282     H      0.358460000000     0.232110000000     0.478190000000     0.0329122  
H283     H      0.308280000000     0.154580000000     0.477360000000     0.0401058  
H284     H      0.328020000000     0.186490000000     0.261560000000     0.0410137  
H285     H      0.367620000000     0.219960000000     0.532510000000     0.0424555  
H286     H      0.382950000000     0.185130000000     0.332440000000     0.034538   
H287     H      0.333740000000     0.211600000000     0.312470000000     0.0333006  
H288     H      0.397570000000     0.196490000000     0.266870000000     0.0398052  
H289     H      0.379510000000     0.216140000000     0.442380000000     0.0430194  
H290     H      0.346560000000     0.229890000000     0.545490000000     0.0355829  
H291     H      0.311580000000     0.172520000000     0.355850000000     0.0437799  
H292     H      0.326700000000     0.220090000000     0.488430000000     0.0384358  
H293     H      0.346880000000     0.217920000000     0.247170000000     0.0371045  
H294     H      0.304680000000     0.153010000000     0.536790000000     0.0327101  
H295     H      0.393790000000     0.216640000000     0.318010000000     0.0347899  
H296     H      0.366150000000     0.230960000000     0.305380000000     0.0371424  
H297     H      0.302090000000     0.171750000000     0.418480000000     0.0396195  
H298     H      0.297140000000     0.176070000000     0.475150000000     0.0389496  
H299     H      0.369590000000     0.168410000000     0.275350000000     0.0404248  
H300     H      0.274630000000     0.163160000000     0.573380000000     0.039636   
H301     H      0.421240000000     0.096210000000     0.602920000000     0.0408163  
H302     H      0.418640000000     0.030950000000     0.509620000000     0.0346044  
H303     H      0.478560000000     0.103970000000     0.500780000000     0.039065   
H304     H      0.350600000000     0.110440000000     0.567140000000     0.0393472  
H305     H      0.449750000000     0.021300000000     0.513370000000     0.040697   
H306     H      0.429750000000     0.147720000000     0.561940000000     0.0345394  
H307     H      0.363050000000     0.080010000000     0.575000000000     0.0344517  
H308     H      0.413460000000     0.169420000000     0.600590000000     0.040598   
H309     H      0.444080000000     0.076740000000     0.579600000000     0.0452086  
H310     H      0.442870000000     0.017550000000     0.466830000000     0.0376338  
H311     H      0.397880000000     0.100330000000     0.496010000000     0.0449471  
H312     H      0.428320000000     0.046000000000     0.466890000000     0.0352376  
H313     H      0.346870000000     0.102090000000     0.613530000000     0.0398456  
H314     H      0.501840000000     0.085070000000     0.501120000000     0.0323314  
H315     H      0.419960000000     0.134500000000     0.605880000000     0.0367074  
H316     H      0.381780000000     0.095690000000     0.613340000000     0.0368351  
H317     H      0.420230000000     0.080420000000     0.472780000000     0.0402594  
H318     H      0.460650000000     0.087490000000     0.462570000000     0.0407095  
H319     H      0.399020000000     0.159520000000     0.557790000000     0.0391674  
H320     H      0.526740000000     0.103900000000     0.443030000000     0.0353412  
H321     H      0.061910000000     0.422580000000     0.870300000000     0.0405546  
H322     H      0.138840000000     0.418360000000     0.892840000000     0.0342461  
H323     H      0.076540000000     0.346840000000     0.902180000000     0.0389598  
H324     H      0.064940000000     0.473370000000     0.981940000000     0.0379527  
H325     H      0.147260000000     0.394260000000     0.852090000000     0.0392116  
H326     H      0.019450000000     0.401920000000     0.930530000000     0.0340179  
H327     H      0.089200000000     0.466570000000     0.939380000000     0.0340848  
H328     H      0.999700000000     0.429070000000     0.933580000000     0.0417809  
H329     H      0.083680000000     0.400910000000     0.851370000000     0.0444155  
H330     H      0.165740000000     0.399120000000     0.890880000000     0.0398031  
H331     H      0.075880000000     0.413580000000     0.980560000000     0.0444425  
H332     H      0.135570000000     0.398730000000     0.930370000000     0.0369229  
H333     H      0.068810000000     0.492650000000     0.944040000000     0.0399426  
H334     H      0.100130000000     0.336500000000     0.865560000000     0.0304164  
H335     H      0.029610000000     0.426160000000     0.897390000000     0.0356875  
H336     H      0.069130000000     0.462990000000     0.902670000000     0.0369819  
H337     H      0.098340000000     0.392840000000     0.961810000000     0.0402184  
H338     H      0.098930000000     0.359310000000     0.937270000000     0.0411396  
H339     H      0.012570000000     0.425560000000     0.974340000000     0.0387154  
H340     H      0.091810000000     0.297970000000     0.903580000000     0.0335117  
H341     H      0.273250000000     0.271100000000     0.818650000000     0.040664   
H342     H      0.263070000000     0.205020000000     0.725420000000     0.0342643  
H343     H      0.329240000000     0.273130000000     0.713820000000     0.0390079  
H344     H      0.196540000000     0.274860000000     0.785540000000     0.039123   
H345     H      0.292930000000     0.192430000000     0.726910000000     0.0381153  
H346     H      0.276550000000     0.322430000000     0.781580000000     0.0343347  
H347     H      0.215330000000     0.250140000000     0.792230000000     0.0342516  
H348     H      0.255150000000     0.338690000000     0.822470000000     0.0393324  
H349     H      0.294930000000     0.250810000000     0.793670000000     0.0444019  
H350     H      0.279330000000     0.184820000000     0.683470000000     0.0399694  
H351     H      0.249360000000     0.276950000000     0.712880000000     0.0448559  
H352     H      0.272660000000     0.219410000000     0.682140000000     0.0366544  
H353     H      0.195000000000     0.267670000000     0.832130000000     0.0398068  
H354     H      0.344860000000     0.245860000000     0.712710000000     0.0308686  
H355     H      0.267510000000     0.307820000000     0.824800000000     0.036155   
H356     H      0.232760000000     0.267050000000     0.830860000000     0.0363385  
H357     H      0.271020000000     0.256890000000     0.687880000000     0.0403723  
H358     H      0.309140000000     0.258960000000     0.676380000000     0.0416403  
H359     H      0.243370000000     0.330280000000     0.778040000000     0.0393007  
H360     H      0.373550000000     0.268210000000     0.658620000000     0.0340416  
H361     H      0.545220000000     0.522880000000     0.791970000000     0.0407407  
H362     H      0.512360000000     0.453980000000     0.683830000000     0.0345256  
H363     H      0.489370000000     0.507100000000     0.691900000000     0.0386423  
H364     H      0.528800000000     0.469610000000     0.899430000000     0.0371654  
H365     H      0.522930000000     0.470680000000     0.626400000000     0.0387883  
H366     H      0.488660000000     0.498960000000     0.845600000000     0.034129   
H367     H      0.546140000000     0.482220000000     0.840540000000     0.034483   
H368     H      0.499590000000     0.512900000000     0.908970000000     0.0401734  
H369     H      0.540530000000     0.520030000000     0.726840000000     0.0445309  
H370     H      0.493420000000     0.444070000000     0.620130000000     0.0395846  
H371     H      0.479730000000     0.451450000000     0.802840000000     0.0441544  
H372     H      0.480610000000     0.445160000000     0.678730000000     0.0353005  
H373     H      0.558150000000     0.497130000000     0.903810000000     0.0408182  
H374     H      0.503250000000     0.514950000000     0.633130000000     0.0322577  
H375     H      0.520000000000     0.523490000000     0.850880000000     0.0382281  
H376     H      0.553370000000     0.513860000000     0.848010000000     0.0371182  
H377     H      0.474090000000     0.449390000000     0.737940000000     0.0402768  
H378     H      0.467860000000     0.474760000000     0.684870000000     0.0419134  
H379     H      0.488660000000     0.480380000000     0.902420000000     0.0381302  
H380     H      0.465010000000     0.514650000000     0.606250000000     0.0355173  
H381     H      0.562410000000     0.542590000000     0.313630000000     0.0406322  
H382     H      0.577900000000     0.523430000000     0.187190000000     0.0342981  
H383     H      0.537090000000     0.560950000000     0.186980000000     0.0402913  
H384     H      0.493160000000     0.462330000000     0.370410000000     0.0379593  
H385     H      0.596350000000     0.558020000000     0.144730000000     0.0365618  
H386     H      0.508440000000     0.533430000000     0.335070000000     0.0345756  
H387     H      0.527220000000     0.476780000000     0.329130000000     0.0341655  
H388     H      0.502010000000     0.526900000000     0.401160000000     0.0408508  
H389     H      0.579390000000     0.558960000000     0.254290000000     0.043981   
H390     H      0.583940000000     0.528880000000     0.121350000000     0.0401774  
H391     H      0.495930000000     0.485660000000     0.264730000000     0.0442349  
H392     H      0.549160000000     0.509160000000     0.163250000000     0.0393839  
H393     H      0.520420000000     0.469320000000     0.394950000000     0.0401227  
H394     H      0.572060000000     0.580450000000     0.146360000000     0.0270109  
H395     H      0.535000000000     0.537290000000     0.359060000000     0.0375799  
H396     H      0.545970000000     0.504170000000     0.355470000000     0.0379788  
H397     H      0.513460000000     0.501180000000     0.205360000000     0.0414501  
H398     H      0.524620000000     0.532100000000     0.162410000000     0.0461853  
H399     H      0.480810000000     0.500820000000     0.374880000000     0.0369352  
H400     H      0.551460000000     0.599090000000     0.107390000000     0.0317197  
H401     H      0.864980000000     0.237570000000     0.860570000000     0.0408646  
H402     H      0.838620000000     0.243900000000     0.990190000000     0.0346547  
H403     H      0.885190000000     0.212880000000     0.983130000000     0.0409749  
H404     H      0.791990000000     0.167780000000     0.794450000000     0.0372054  
H405     H      0.871590000000     0.263960000000     0.034240000000     0.0366383  
H406     H      0.859600000000     0.182660000000     0.838810000000     0.0346955  
H407     H      0.802830000000     0.200600000000     0.837980000000     0.0342265  
H408     H      0.857210000000     0.178230000000     0.772330000000     0.0410707  
H409     H      0.878440000000     0.253440000000     0.921330000000     0.0442617  
H410     H      0.842620000000     0.246180000000     0.056750000000     0.040577   
H411     H      0.811330000000     0.166620000000     0.903880000000     0.0442039  
H412     H      0.827960000000     0.213810000000     0.010330000000     0.039071   
H413     H      0.799640000000     0.196160000000     0.771450000000     0.04052    
H414     H      0.899460000000     0.246000000000     0.027680000000     0.0272373  
H415     H      0.864660000000     0.210380000000     0.815800000000     0.0382063  
H416     H      0.831240000000     0.220950000000     0.815400000000     0.0380756  
H417     H      0.824250000000     0.182760000000     0.964690000000     0.0412405  
H418     H      0.856570000000     0.195130000000     0.006900000000     0.0469087  
H419     H      0.829800000000     0.156040000000     0.794890000000     0.036562   
H420     H      0.913570000000     0.226530000000     0.083730000000     0.0366766  
H421     H      0.796470000000     0.145460000000     0.447060000000     0.0407002  
H422     H      0.796090000000     0.187060000000     0.324590000000     0.0347373  
H423     H      0.835320000000     0.148050000000     0.325070000000     0.0396843  
H424     H      0.827610000000     0.218840000000     0.529160000000     0.0367516  
H425     H      0.783840000000     0.159360000000     0.273190000000     0.0341235  
H426     H      0.858110000000     0.177760000000     0.481220000000     0.0342335  
H427     H      0.801530000000     0.195880000000     0.479790000000     0.0343915  
H428     H      0.857030000000     0.176510000000     0.548140000000     0.040148   
H429     H      0.789410000000     0.136440000000     0.382850000000     0.0441123  
H430     H      0.799130000000     0.191070000000     0.258810000000     0.0395188  
H431     H      0.858060000000     0.217630000000     0.423050000000     0.0443574  
H432     H      0.827560000000     0.203300000000     0.309680000000     0.0408368  
H433     H      0.799590000000     0.194040000000     0.546890000000     0.0407427  
H434     H      0.809650000000     0.135450000000     0.271950000000     0.028113   
H435     H      0.828350000000     0.156060000000     0.499080000000     0.0378053  
H436     H      0.795510000000     0.166540000000     0.498310000000     0.0372056  
H437     H      0.851820000000     0.208170000000     0.359090000000     0.0414313  
H438     H      0.851230000000     0.180200000000     0.311400000000     0.044374   
H439     H      0.867000000000     0.206760000000     0.529630000000     0.0378592  
H440     H      0.841640000000     0.131310000000     0.230770000000     0.0352896  
H441     H      0.120500000000     0.339870000000     0.644050000000     0.040383   
H442     H      0.155380000000     0.374090000000     0.521080000000     0.0343281  
H443     H      0.115130000000     0.295330000000     0.520230000000     0.0405086  
H444     H      0.196080000000     0.356130000000     0.719710000000     0.0393054  
H445     H      0.127000000000     0.359990000000     0.470410000000     0.0363674  
H446     H      0.127360000000     0.296020000000     0.678740000000     0.034386   
H447     H      0.182340000000     0.371750000000     0.671960000000     0.0341657  
H448     H      0.129000000000     0.299530000000     0.746550000000     0.0399481  
H449     H      0.111080000000     0.340070000000     0.580350000000     0.0438671  
H450     H      0.158200000000     0.375350000000     0.454960000000     0.0406902  
H451     H      0.180590000000     0.328480000000     0.616250000000     0.0446394  
H452     H      0.170520000000     0.357910000000     0.504590000000     0.0391753  
H453     H      0.184170000000     0.374160000000     0.739510000000     0.0392932  
H454     H      0.102580000000     0.312560000000     0.471280000000     0.0268871  
H455     H      0.122110000000     0.319800000000     0.696980000000     0.0360162  
H456     H      0.153480000000     0.362880000000     0.693320000000     0.0367192  
H457     H      0.171820000000     0.329700000000     0.552610000000     0.0414564  
H458     H      0.146200000000     0.310450000000     0.503510000000     0.0454587  
H459     H      0.154760000000     0.300010000000     0.725590000000     0.0384613  
H460     H      0.094950000000     0.279490000000     0.418880000000     0.0355097  
H461     H      0.169000000000     0.341770000000     0.140200000000     0.0407971  
H462     H      0.226020000000     0.374410000000     0.022230000000     0.0345884  
H463     H      0.173980000000     0.298040000000     0.031370000000     0.0387545  
H464     H      0.231340000000     0.374450000000     0.238180000000     0.0365838  
H465     H      0.204990000000     0.369360000000     0.968710000000     0.0398789  
H466     H      0.191470000000     0.305270000000     0.186080000000     0.0341546  
H467     H      0.217560000000     0.382780000000     0.182010000000     0.0345345  
H468     H      0.182870000000     0.304520000000     0.251150000000     0.0407142  
H469     H      0.165910000000     0.339340000000     0.074830000000     0.0449157  
H470     H      0.230550000000     0.366320000000     0.955490000000     0.0390664  
H471     H      0.237160000000     0.341290000000     0.134820000000     0.0439822  
H472     H      0.233940000000     0.351040000000     0.011600000000     0.0351771  
H473     H      0.208480000000     0.382890000000     0.247210000000     0.0409626  
H474     H      0.162120000000     0.304690000000     0.975550000000     0.0327478  
H475     H      0.170480000000     0.316350000000     0.195630000000     0.0385963  
H476     H      0.185840000000     0.362110000000     0.193280000000     0.0379479  
H477     H      0.233350000000     0.337410000000     0.069620000000     0.0402163  
H478     H      0.205130000000     0.308480000000     0.018860000000     0.041411   
H479     H      0.214770000000     0.323750000000     0.240350000000     0.0371142  
H480     H      0.161000000000     0.266990000000     0.943830000000     0.0353859  
H481     H      0.045270000000     0.303140000000     0.213880000000     0.0402999  
H482     H      0.960430000000     0.229600000000     0.206550000000     0.0346192  
H483     H      0.955670000000     0.293590000000     0.229970000000     0.0394651  
H484     H      0.075900000000     0.282880000000     0.331760000000     0.0380467  
H485     H      0.933870000000     0.230720000000     0.161530000000     0.0379502  
H486     H      0.062890000000     0.338430000000     0.282720000000     0.0342386  
H487     H      0.049420000000     0.264490000000     0.281340000000     0.0338249  
H488     H      0.107690000000     0.353660000000     0.296590000000     0.0401361  
H489     H      0.005270000000     0.287610000000     0.184700000000     0.0442144  
H490     H      0.915980000000     0.206150000000     0.192280000000     0.041582   
H491     H      0.009310000000     0.277820000000     0.315750000000     0.0444329  
H492     H      0.941180000000     0.229110000000     0.242530000000     0.0378149  
H493     H      0.093740000000     0.280020000000     0.296760000000     0.0392828  
H494     H      0.926470000000     0.276290000000     0.183580000000     0.0296581  
H495     H      0.078540000000     0.329340000000     0.251100000000     0.0358717  
H496     H      0.070970000000     0.287200000000     0.250550000000     0.0367185  
H497     H      0.969420000000     0.261290000000     0.286580000000     0.0401476  
H498     H      0.940410000000     0.266500000000     0.257830000000     0.0415529  
H499     H      0.086560000000     0.337470000000     0.332000000000     0.0383025  
H500     H      0.895160000000     0.284820000000     0.217090000000     0.0339689  
H501     H      0.317860000000     0.393730000000     0.387900000000     0.0407658  
H502     H      0.379670000000     0.455920000000     0.478120000000     0.0344376  
H503     H      0.381020000000     0.388640000000     0.475420000000     0.0389204  
H504     H      0.241470000000     0.389770000000     0.439550000000     0.0371361  
H505     H      0.421280000000     0.470740000000     0.465710000000     0.0395545  
H506     H      0.271620000000     0.341560000000     0.429050000000     0.0343774  
H507     H      0.284660000000     0.415400000000     0.428440000000     0.034287   
H508     H      0.232210000000     0.327410000000     0.395110000000     0.0402581  
H509     H      0.361230000000     0.412530000000     0.404840000000     0.0447569  
H510     H      0.420080000000     0.475530000000     0.512530000000     0.0395671  
H511     H      0.297590000000     0.384700000000     0.499230000000     0.0442868  
H512     H      0.380090000000     0.440640000000     0.518800000000     0.0363174  
H513     H      0.245450000000     0.401520000000     0.394810000000     0.0406639  
H514     H      0.422960000000     0.415430000000     0.469380000000     0.0313568  
H515     H      0.275410000000     0.357420000000     0.387110000000     0.0372038  
H516     H      0.282810000000     0.400030000000     0.386740000000     0.0372192  
H517     H      0.340820000000     0.403060000000     0.516190000000     0.0403318  
H518     H      0.378500000000     0.401640000000     0.516880000000     0.041256   
H519     H      0.232190000000     0.337790000000     0.439840000000     0.038261   
H520     H      0.435960000000     0.394910000000     0.518710000000     0.0346679  
H521     H      0.503440000000     0.020760000000     0.769450000000     0.0409766  
H522     H      0.554770000000     0.062260000000     0.649780000000     0.0345023  
H523     H      0.510660000000     0.984080000000     0.653470000000     0.0390305  
H524     H      0.570830000000     0.059240000000     0.859990000000     0.0358998  
H525     H      0.530260000000     0.053850000000     0.597840000000     0.0381168  
H526     H      0.531910000000     0.989470000000     0.811860000000     0.0344196  
H527     H      0.553900000000     0.066060000000     0.805620000000     0.0345496  
H528     H      0.525410000000     0.989690000000     0.877880000000     0.0402237  
H529     H      0.498170000000     0.019810000000     0.704370000000     0.0445865  
H530     H      0.559600000000     0.059700000000     0.582920000000     0.0407614  
H531     H      0.575060000000     0.028980000000     0.755260000000     0.044144   
H532     H      0.566830000000     0.042770000000     0.635590000000     0.0362568  
H533     H      0.548130000000     0.067450000000     0.871340000000     0.040773   
H534     H      0.497000000000     0.992710000000     0.599460000000     0.0314178  
H535     H      0.509850000000     0.998860000000     0.823100000000     0.0386521  
H536     H      0.523000000000     0.044520000000     0.819840000000     0.0389627  
H537     H      0.569270000000     0.026660000000     0.690310000000     0.0402512  
H538     H      0.542190000000     0.998610000000     0.639760000000     0.0422515  
H539     H      0.556660000000     0.010010000000     0.864380000000     0.0371977  
H540     H      0.496660000000     0.955740000000     0.565910000000     0.0345386  
H541     H      0.473680000000     0.028140000000     0.269310000000     0.0407692  
H542     H      0.499190000000     0.062830000000     0.142490000000     0.0345825  
H543     H      0.461270000000     0.983980000000     0.144540000000     0.0409829  
H544     H      0.551100000000     0.042370000000     0.336360000000     0.0378662  
H545     H      0.467360000000     0.046820000000     0.096320000000     0.0362858  
H546     H      0.484050000000     0.983620000000     0.295290000000     0.0346785  
H547     H      0.536750000000     0.060390000000     0.291850000000     0.0344258  
H548     H      0.487360000000     0.983930000000     0.362140000000     0.0409444  
H549     H      0.460190000000     0.028400000000     0.207790000000     0.0440676  
H550     H      0.497240000000     0.062830000000     0.075960000000     0.0404145  
H551     H      0.533000000000     0.019170000000     0.229360000000     0.0444398  
H552     H      0.514150000000     0.047480000000     0.122460000000     0.0394689  
H553     H      0.540790000000     0.061110000000     0.358590000000     0.0404673  
H554     H      0.444630000000     0.000120000000     0.099560000000     0.0268305  
H555     H      0.477520000000     0.005570000000     0.317050000000     0.0376261  
H556     H      0.508170000000     0.050210000000     0.315000000000     0.0381931  
H557     H      0.520140000000     0.020510000000     0.167830000000     0.0415122  
H558     H      0.490890000000     0.999480000000     0.122890000000     0.0466363  
H559     H      0.514640000000     0.989650000000     0.339080000000     0.0370067  
H560     H      0.436120000000     0.968530000000     0.042680000000     0.0362549  
H561     H      0.655440000000     0.066020000000     0.045570000000     0.0400469  
H562     H      0.736720000000     0.125450000000     0.052030000000     0.0332607  
H563     H      0.712930000000     0.141120000000     0.149700000000     0.0393711  
H564     H      0.587330000000     0.096310000000     0.038150000000     0.03863    
H565     H      0.763700000000     0.126000000000     0.099170000000     0.0402685  
H566     H      0.613510000000     0.048820000000     0.073960000000     0.0340479  
H567     H      0.629560000000     0.115080000000     0.018860000000     0.0329582  
H568     H      0.573020000000     0.026120000000     0.041020000000     0.0407752  
H569     H      0.697050000000     0.085940000000     0.068830000000     0.0429375  
H570     H      0.780430000000     0.152400000000     0.070340000000     0.0348014  
H571     H      0.649140000000     0.129180000000     0.078840000000     0.0428068  
H572     H      0.743780000000     0.156740000000     0.061710000000     0.0392812  
H573     H      0.588280000000     0.093480000000     0.990460000000     0.038772   
H574     H      0.748330000000     0.137150000000     0.162980000000     0.0278426  
H575     H      0.615750000000     0.050240000000     0.025750000000     0.0367457  
H576     H      0.624110000000     0.087820000000     0.994520000000     0.0386435  
H577     H      0.691520000000     0.150250000000     0.098100000000     0.0402955  
H578     H      0.730150000000     0.165970000000     0.118070000000     0.0437158  
H579     H      0.575330000000     0.048230000000     0.073620000000     0.0364197  
H580     H      0.762600000000     0.169690000000     0.214020000000     0.03077    
H581     H      0.169970000000     0.864070000000     0.519130000000     0.0405097  
H582     H      0.183590000000     0.803770000000     0.634740000000     0.0386076  
H583     H      0.216530000000     0.880990000000     0.612210000000     0.0376469  
H584     H      0.130840000000     0.808130000000     0.420720000000     0.0366792  
H585     H      0.202340000000     0.810660000000     0.689540000000     0.0411979  
H586     H      0.205820000000     0.838420000000     0.458160000000     0.0334455  
H587     H      0.134940000000     0.828220000000     0.477030000000     0.034093   
H588     H      0.201660000000     0.844160000000     0.393200000000     0.0394007  
H589     H      0.180440000000     0.866980000000     0.581980000000     0.0424866  
H590     H      0.231020000000     0.834830000000     0.673040000000     0.0335757  
H591     H      0.182540000000     0.802260000000     0.507460000000     0.0436153  
H592     H      0.214960000000     0.819550000000     0.619050000000     0.0313509  
H593     H      0.131970000000     0.836950000000     0.411410000000     0.04034    
H594     H      0.201240000000     0.876770000000     0.670340000000     0.0347417  
H595     H      0.199430000000     0.863130000000     0.449260000000     0.0384731  
H596     H      0.159220000000     0.857610000000     0.460560000000     0.0363885  
H597     H      0.195260000000     0.806390000000     0.568960000000     0.0392547  
H598     H      0.235150000000     0.867420000000     0.621700000000     0.0426953  
H599     H      0.180580000000     0.813480000000     0.409210000000     0.0384239  
H600     H      0.239780000000     0.904290000000     0.715240000000     0.0419187  
H601     H      0.110930000000     0.810980000000     0.074480000000     0.0405665  
H602     H      0.126890000000     0.859240000000     0.941770000000     0.0342739  
H603     H      0.155850000000     0.813430000000     0.972280000000     0.0391881  
H604     H      0.143650000000     0.875500000000     0.170840000000     0.0374785  
H605     H      0.117790000000     0.829950000000     0.893570000000     0.0365259  
H606     H      0.173900000000     0.840230000000     0.104910000000     0.0341963  
H607     H      0.116830000000     0.856620000000     0.120660000000     0.0341477  
H608     H      0.175110000000     0.833270000000     0.170470000000     0.0403093  
H609     H      0.107530000000     0.804740000000     0.009590000000     0.0439056  
H610     H      0.140450000000     0.860250000000     0.878920000000     0.0413063  
H611     H      0.173870000000     0.883770000000     0.059630000000     0.0442494  
H612     H      0.159380000000     0.870910000000     0.937500000000     0.038173   
H613     H      0.117040000000     0.848190000000     0.186920000000     0.040207   
H614     H      0.139170000000     0.799090000000     0.913710000000     0.029188   
H615     H      0.144850000000     0.816910000000     0.122850000000     0.0377972  
H616     H      0.111920000000     0.826190000000     0.131600000000     0.0364267  
H617     H      0.171330000000     0.877120000000     0.995150000000     0.0405904  
H618     H      0.176170000000     0.844670000000     0.957080000000     0.0438541  
H619     H      0.184680000000     0.864800000000     0.158540000000     0.0379203  
H620     H      0.175070000000     0.790890000000     0.897310000000     0.033516   
H621     H      0.379950000000     0.957970000000     0.842810000000     0.040547   
H622     H      0.295900000000     0.878310000000     0.857100000000     0.0344135  
H623     H      0.290010000000     0.942980000000     0.849380000000     0.0390701  
H624     H      0.418320000000     0.958150000000     0.964570000000     0.0377545  
H625     H      0.267690000000     0.868730000000     0.809310000000     0.0392483  
H626     H      0.394420000000     0.001620000000     0.903820000000     0.0343366  
H627     H      0.391640000000     0.932620000000     0.917890000000     0.0341925  
H628     H      0.440330000000     0.023880000000     0.915660000000     0.0398793  
H629     H      0.338980000000     0.934660000000     0.815690000000     0.0446917  
H630     H      0.250250000000     0.852040000000     0.847560000000     0.0406611  
H631     H      0.347150000000     0.944530000000     0.947450000000     0.0444893  
H632     H      0.277270000000     0.883680000000     0.888280000000     0.0368734  
H633     H      0.436930000000     0.955160000000     0.930960000000     0.0398865  
H634     H      0.259990000000     0.918220000000     0.807540000000     0.030115   
H635     H      0.411760000000     0.992950000000     0.874870000000     0.0360624  
H636     H      0.410370000000     0.953680000000     0.883180000000     0.0366429  
H637     H      0.306370000000     0.920870000000     0.920610000000     0.0402422  
H638     H      0.275880000000     0.921520000000     0.885610000000     0.0414043  
H639     H      0.421110000000     0.009180000000     0.953540000000     0.0386625  
H640     H      0.228350000000     0.929840000000     0.832110000000     0.0335856  
H641     H      0.848230000000     0.673180000000     0.912140000000     0.0411279  
H642     H      0.825400000000     0.630800000000     0.798020000000     0.0343696  
H643     H      0.847410000000     0.706310000000     0.775940000000     0.0344621  
H644     H      0.772730000000     0.660110000000     0.981960000000     0.0363308  
H645     H      0.857130000000     0.643200000000     0.753830000000     0.0362481  
H646     H      0.835260000000     0.716820000000     0.935620000000     0.0347051  
H647     H      0.783650000000     0.639510000000     0.935870000000     0.0341731  
H648     H      0.834490000000     0.717770000000     0.002490000000     0.0407489  
H649     H      0.860660000000     0.670290000000     0.851220000000     0.0441904  
H650     H      0.828550000000     0.623640000000     0.731190000000     0.0372481  
H651     H      0.785930000000     0.676390000000     0.870620000000     0.0437759  
H652     H      0.806740000000     0.638050000000     0.769470000000     0.0380061  
H653     H      0.781480000000     0.639430000000     0.002300000000     0.0407049  
H654     H      0.873750000000     0.696140000000     0.740960000000     0.0321399  
H655     H      0.844440000000     0.696450000000     0.956240000000     0.0393088  
H656     H      0.813120000000     0.649580000000     0.956310000000     0.0391562  
H657     H      0.797640000000     0.671920000000     0.809560000000     0.040666   
H658     H      0.819950000000     0.681770000000     0.755260000000     0.0380723  
H659     H      0.805190000000     0.708150000000     0.982380000000     0.0357238  
H660     H      0.875460000000     0.722650000000     0.687650000000     0.00735155 
H661     H      0.822340000000     0.665100000000     0.319620000000     0.0408864  
H662     H      0.843410000000     0.626510000000     0.434610000000     0.0345605  
H663     H      0.868490000000     0.703540000000     0.432390000000     0.0389098  
H664     H      0.852280000000     0.633440000000     0.220340000000     0.0369117  
H665     H      0.827400000000     0.631810000000     0.488860000000     0.0385268  
H666     H      0.881760000000     0.701600000000     0.275920000000     0.0342607  
H667     H      0.829460000000     0.624580000000     0.275680000000     0.0345035  
H668     H      0.875060000000     0.704300000000     0.210720000000     0.0406912  
H669     H      0.820520000000     0.665080000000     0.385120000000     0.044644   
H670     H      0.854020000000     0.630170000000     0.500770000000     0.0407051  
H671     H      0.889860000000     0.663360000000     0.325060000000     0.0443032  
H672     H      0.874550000000     0.648680000000     0.446540000000     0.0363618  
H673     H      0.821640000000     0.626480000000     0.210390000000     0.0410609  
H674     H      0.848820000000     0.693320000000     0.488280000000     0.0319084  
H675     H      0.850250000000     0.691780000000     0.265380000000     0.0383443  
H676     H      0.819440000000     0.646460000000     0.265080000000     0.0378508  
H677     H      0.888850000000     0.664900000000     0.390430000000     0.0404911  
H678     H      0.888880000000     0.692060000000     0.443030000000     0.0422645  
H679     H      0.887170000000     0.684210000000     0.220840000000     0.0380396  
H680     H      0.884170000000     0.731560000000     0.520640000000     0.0344538  
H681     H      0.639600000000     0.565550000000     0.601230000000     0.0407522  
H682     H      0.724490000000     0.573910000000     0.588740000000     0.0342028  
H683     H      0.727880000000     0.643370000000     0.579640000000     0.0391561  
H684     H      0.595570000000     0.516560000000     0.488010000000     0.0376435  
H685     H      0.755050000000     0.600970000000     0.631070000000     0.0377339  
H686     H      0.621370000000     0.588020000000     0.534650000000     0.0343809  
H687     H      0.625580000000     0.522040000000     0.532640000000     0.0341569  
H688     H      0.575540000000     0.562860000000     0.528030000000     0.0407517  
H689     H      0.681680000000     0.587820000000     0.624690000000     0.0441241  
H690     H      0.769600000000     0.594710000000     0.594680000000     0.0413534  
H691     H      0.667810000000     0.576660000000     0.493780000000     0.0442767  
H692     H      0.740530000000     0.594100000000     0.551670000000     0.0376296  
H693     H      0.580020000000     0.496630000000     0.525250000000     0.0403897  
H694     H      0.760150000000     0.652360000000     0.620720000000     0.0285827  
H695     H      0.606360000000     0.564970000000     0.569110000000     0.0372747  
H696     H      0.608760000000     0.526700000000     0.567850000000     0.0375835  
H697     H      0.709740000000     0.598290000000     0.517090000000     0.0403868  
H698     H      0.740810000000     0.633250000000     0.545200000000     0.0422054  
H699     H      0.592310000000     0.562110000000     0.489820000000     0.0375033  
H700     H      0.788910000000     0.695520000000     0.591310000000     0.032572   
H701     H      0.025320000000     0.749420000000     0.748130000000     0.0407007  
H702     H      0.970690000000     0.750610000000     0.648960000000     0.0344229  
H703     H      0.965110000000     0.680100000000     0.656060000000     0.0391493  
H704     H      0.107850000000     0.816600000000     0.698660000000     0.0395285  
H705     H      0.928380000000     0.725330000000     0.657470000000     0.0386257  
H706     H      0.069580000000     0.737800000000     0.721290000000     0.0342789  
H707     H      0.064960000000     0.802660000000     0.703350000000     0.034153   
H708     H      0.107560000000     0.762850000000     0.758930000000     0.0400909  
H709     H      0.982880000000     0.726070000000     0.726320000000     0.044556   
H710     H      0.931860000000     0.730850000000     0.610450000000     0.0384137  
H711     H      0.051730000000     0.756200000000     0.640130000000     0.0447609  
H712     H      0.971280000000     0.734400000000     0.609470000000     0.0367723  
H713     H      0.102970000000     0.827430000000     0.740530000000     0.0401279  
H714     H      0.923450000000     0.665550000000     0.655340000000     0.0313721  
H715     H      0.065560000000     0.753880000000     0.758430000000     0.0364819  
H716     H      0.063010000000     0.791110000000     0.748150000000     0.0365355  
H717     H      0.009420000000     0.733070000000     0.618290000000     0.0402789  
H718     H      0.971010000000     0.696150000000     0.614230000000     0.0412118  
H719     H      0.111270000000     0.769660000000     0.712060000000     0.0390653  
H720     H      0.912160000000     0.633770000000     0.603890000000     0.0348162  
N1       N      0.703280000000     0.916660000000     0.757410000000    -0.170104   
N2       N      0.719390000000     0.966160000000     0.737340000000    -0.111219   
N3       N      0.758370000000     0.060780000000     0.670230000000    -0.113958   
N4       N      0.786300000000     0.112250000000     0.656490000000    -0.167658   
N5       N      0.971420000000     0.448950000000     0.528180000000    -0.170198   
N6       N      0.948830000000     0.399620000000     0.555330000000    -0.111801   
N7       N      0.900260000000     0.311480000000     0.639990000000    -0.114004   
N8       N      0.871370000000     0.261510000000     0.661690000000    -0.167637   
N9       N      0.028320000000     0.584370000000     0.435970000000    -0.169958   
N10      N      0.047580000000     0.632750000000     0.406560000000    -0.111965   
N11      N      0.083870000000     0.717130000000     0.314510000000    -0.114113   
N12      N      0.111090000000     0.766180000000     0.288440000000    -0.167785   
N13      N      0.581470000000     0.596940000000     0.983860000000    -0.170295   
N14      N      0.603470000000     0.641860000000     0.945750000000    -0.111074   
N15      N      0.645150000000     0.740370000000     0.891340000000    -0.113464   
N16      N      0.659700000000     0.784460000000     0.852740000000    -0.167278   
N17      N      0.323180000000     0.107180000000     0.183750000000    -0.16999    
N18      N      0.292440000000     0.056700000000     0.203880000000    -0.111876   
N19      N      0.233640000000     0.965030000000     0.277190000000    -0.113989   
N20      N      0.202420000000     0.914470000000     0.293870000000    -0.167816   
N21      N      0.403330000000     0.248950000000     0.114540000000    -0.170216   
N22      N      0.430540000000     0.300920000000     0.104650000000    -0.111487   
N23      N      0.481560000000     0.401400000000     0.055920000000    -0.113398   
N24      N      0.508320000000     0.452990000000     0.044470000000    -0.16715    
N25      N      0.678520000000     0.823900000000     0.406630000000    -0.169485   
N26      N      0.676070000000     0.821760000000     0.480680000000    -0.110349   
N27      N      0.674830000000     0.812690000000     0.632800000000    -0.11385    
N28      N      0.676400000000     0.821560000000     0.707030000000    -0.167392   
N29      N      0.685730000000     0.878240000000     0.904340000000    -0.169692   
N30      N      0.683430000000     0.877010000000     0.978100000000    -0.11033    
N31      N      0.677470000000     0.878510000000     0.130400000000    -0.113697   
N32      N      0.676540000000     0.868560000000     0.204320000000    -0.167217   
N33      N      0.701060000000     0.799800000000     0.272480000000    -0.170427   
N34      N      0.716210000000     0.770440000000     0.235640000000    -0.111234   
N35      N      0.760390000000     0.715560000000     0.186900000000    -0.113677   
N36      N      0.787630000000     0.697620000000     0.151080000000    -0.167594   
N37      N      0.654130000000     0.890930000000     0.345690000000    -0.170585   
N38      N      0.638020000000     0.924060000000     0.367240000000    -0.111749   
N39      N      0.599130000000     0.975410000000     0.444330000000    -0.113914   
N40      N      0.569300000000     0.995310000000     0.464190000000    -0.167715   
N41      N      0.002300000000     0.523450000000     0.881880000000    -0.171491   
N42      N      0.000700000000     0.536590000000     0.809430000000    -0.112907   
N43      N      0.001960000000     0.538630000000     0.656920000000    -0.11282    
N44      N      0.004910000000     0.541510000000     0.583310000000    -0.16671    
N45      N      0.001260000000     0.475930000000     0.083200000000    -0.172517   
N46      N      0.998340000000     0.469620000000     0.158460000000    -0.111992   
N47      N      0.996200000000     0.488510000000     0.307090000000    -0.112053   
N48      N      0.995090000000     0.492260000000     0.381500000000    -0.166344   
N49      N      0.871230000000     0.646000000000     0.065940000000    -0.170983   
N50      N      0.898720000000     0.623580000000     0.042490000000    -0.112592   
N51      N      0.947520000000     0.567140000000     0.039280000000    -0.11377    
N52      N      0.969870000000     0.539370000000     0.019360000000    -0.168139   
N53      N      0.360300000000     0.155620000000     0.045680000000    -0.169719   
N54      N      0.365070000000     0.158440000000     0.972030000000    -0.110111   
N55      N      0.366670000000     0.156340000000     0.819280000000    -0.11364    
N56      N      0.360500000000     0.161480000000     0.745630000000    -0.167336   
N57      N      0.332100000000     0.190790000000     0.546640000000    -0.16985    
N58      N      0.335980000000     0.192400000000     0.474700000000    -0.108112   
N59      N      0.354960000000     0.194360000000     0.324350000000    -0.112279   
N60      N      0.364910000000     0.196600000000     0.251300000000    -0.166729   
N61      N      0.476920000000     0.049410000000     0.480650000000    -0.170142   
N62      N      0.449250000000     0.067620000000     0.511700000000    -0.110395   
N63      N      0.396150000000     0.113310000000     0.563000000000    -0.113395   
N64      N      0.376580000000     0.138510000000     0.600970000000    -0.16715    
N65      N      0.135990000000     0.361950000000     0.883410000000    -0.17051    
N66      N      0.105970000000     0.383290000000     0.892750000000    -0.111477   
N67      N      0.055160000000     0.432630000000     0.939490000000    -0.113481   
N68      N      0.032750000000     0.461270000000     0.951180000000    -0.166933   
N69      N      0.316400000000     0.215040000000     0.685570000000    -0.170558   
N70      N      0.296700000000     0.239390000000     0.725560000000    -0.111584   
N71      N      0.245470000000     0.286030000000     0.780940000000    -0.113224   
N72      N      0.220220000000     0.305500000000     0.817850000000    -0.167102   
N73      N      0.494790000000     0.479060000000     0.615950000000    -0.170387   
N74      N      0.505100000000     0.483840000000     0.688870000000    -0.110915   
N75      N      0.515240000000     0.487500000000     0.840740000000    -0.113609   
N76      N      0.526680000000     0.501490000000     0.912930000000    -0.16749    
N77      N      0.563620000000     0.548380000000     0.116390000000    -0.172114   
N78      N      0.557840000000     0.542570000000     0.191260000000    -0.112987   
N79      N      0.516160000000     0.504010000000     0.327870000000    -0.113709   
N80      N      0.507030000000     0.494940000000     0.401690000000    -0.167795   
N81      N      0.866640000000     0.230650000000     0.057610000000    -0.172815   
N82      N      0.862120000000     0.228820000000     0.982510000000    -0.112985   
N83      N      0.830080000000     0.190050000000     0.842540000000    -0.113871   
N84      N      0.826060000000     0.183780000000     0.767650000000    -0.167773   
N85      N      0.819460000000     0.171530000000     0.253310000000    -0.172      
N86      N      0.814360000000     0.166120000000     0.328640000000    -0.112712   
N87      N      0.831580000000     0.189310000000     0.477010000000    -0.113747   
N88      N      0.831540000000     0.189970000000     0.552290000000    -0.167719   
N89      N      0.137770000000     0.335280000000     0.449010000000    -0.171813   
N90      N      0.134220000000     0.334680000000     0.524640000000    -0.113007   
N91      N      0.156990000000     0.332910000000     0.671930000000    -0.113229   
N92      N      0.162400000000     0.334710000000     0.746700000000    -0.167002   
N93      N      0.195930000000     0.332740000000     0.954550000000    -0.17       
N94      N      0.196890000000     0.337210000000     0.028760000000    -0.110786   
N95      N      0.206650000000     0.344360000000     0.180740000000    -0.113882   
N96      N      0.197450000000     0.344180000000     0.254630000000    -0.167468   
N97      N      0.910840000000     0.237890000000     0.194600000000    -0.169753   
N98      N      0.961090000000     0.263780000000     0.214880000000    -0.111862   
N99      N      0.053210000000     0.300390000000     0.285630000000    -0.113495   
N100     N      0.101590000000     0.317130000000     0.308390000000    -0.167041   
N101     N      0.427900000000     0.446840000000     0.498370000000    -0.16981    
N102     N      0.380170000000     0.422210000000     0.470450000000    -0.111065   
N103     N      0.279040000000     0.378800000000     0.433840000000    -0.113663   
N104     N      0.233410000000     0.362510000000     0.399930000000    -0.16703    
N105     N      0.530420000000     0.021840000000     0.579020000000    -0.170537   
N106     N      0.529690000000     0.023480000000     0.654270000000    -0.11154    
N107     N      0.544640000000     0.028060000000     0.805140000000    -0.113979   
N108     N      0.537990000000     0.028970000000     0.879460000000    -0.168051   
N109     N      0.477910000000     0.022680000000     0.072230000000    -0.172728   
N110     N      0.479790000000     0.023430000000     0.147670000000    -0.112951   
N111     N      0.511910000000     0.021470000000     0.289570000000    -0.113634   
N112     N      0.517760000000     0.021500000000     0.364360000000    -0.167401   
N113     N      0.771780000000     0.160380000000     0.122230000000    -0.171283   
N114     N      0.722140000000     0.129810000000     0.101250000000    -0.11172    
N115     N      0.622800000000     0.083960000000     0.051370000000    -0.11279    
N116     N      0.575610000000     0.059740000000     0.020430000000    -0.167302   
N117     N      0.207300000000     0.847770000000     0.688800000000    -0.170583   
N118     N      0.196950000000     0.841140000000     0.618730000000    -0.108003   
N119     N      0.169360000000     0.829970000000     0.470490000000    -0.113305   
N120     N      0.163950000000     0.834900000000     0.396680000000    -0.167631   
N121     N      0.152990000000     0.834000000000     0.887910000000    -0.170815   
N122     N      0.138530000000     0.834330000000     0.959920000000    -0.112255   
N123     N      0.147180000000     0.851540000000     0.109790000000    -0.113607   
N124     N      0.150170000000     0.846210000000     0.184150000000    -0.16738    
N125     N      0.245750000000     0.882550000000     0.830750000000    -0.16981    
N126     N      0.295820000000     0.912170000000     0.849000000000    -0.111394   
N127     N      0.390130000000     0.966030000000     0.914540000000    -0.113459   
N128     N      0.439800000000     0.991050000000     0.934920000000    -0.166886   
N129     N      0.845690000000     0.662510000000     0.719860000000    -0.174108   
N130     N      0.838590000000     0.669540000000     0.790660000000    -0.112825   
N131     N      0.808930000000     0.678280000000     0.931400000000    -0.113988   
N132     N      0.807570000000     0.678720000000     0.006760000000    -0.168008   
N133     N      0.857160000000     0.666040000000     0.506180000000    -0.170034   
N134     N      0.852240000000     0.664290000000     0.431300000000    -0.111329   
N135     N      0.857400000000     0.662570000000     0.279000000000    -0.113844   
N136     N      0.849960000000     0.664950000000     0.205040000000    -0.16747    
N137     N      0.775280000000     0.631970000000     0.597240000000    -0.169988   
N138     N      0.723400000000     0.607560000000     0.587730000000    -0.112183   
N139     N      0.626260000000     0.556600000000     0.530500000000    -0.113715   
N140     N      0.575170000000     0.528410000000     0.518820000000    -0.166945   
N141     N      0.921540000000     0.693910000000     0.626660000000    -0.169892   
N142     N      0.967690000000     0.715430000000     0.658890000000    -0.110987   
N143     N      0.066880000000     0.769490000000     0.706900000000    -0.11337    
N144     N      0.111540000000     0.798030000000     0.743570000000    -0.166759   
O1       O      0.887070000000     0.697130000000     0.618920000000    -0.401829   
O2       O      0.813590000000     0.666090000000     0.607110000000    -0.396827   
O3       O      0.846970000000     0.680040000000     0.666980000000    -0.421719   
O4       O      0.854550000000     0.683330000000     0.559250000000    -0.396077   
O5       O      0.850570000000     0.645610000000     0.559770000000    -0.399116   
O6       O      0.841930000000     0.641640000000     0.667410000000    -0.401365   
O7       O      0.809580000000     0.628460000000     0.606620000000    -0.398318   
O8       O      0.883120000000     0.659430000000     0.620280000000    -0.394789   
O9       O      0.143130000000     0.835810000000     0.761880000000    -0.398054   
O10      O      0.210890000000     0.878340000000     0.804120000000    -0.396932   
O11      O      0.192040000000     0.861350000000     0.733710000000    -0.398031   
O12      O      0.162350000000     0.852900000000     0.832710000000    -0.39714    
O13      O      0.166130000000     0.819550000000     0.841260000000    -0.399014   
O14      O      0.194130000000     0.826930000000     0.741980000000    -0.401704   
O15      O      0.214250000000     0.844650000000     0.812010000000    -0.396974   
O16      O      0.145870000000     0.801850000000     0.771210000000    -0.397567   
O17      O      0.544140000000     0.061250000000     0.991870000000    -0.398265   
O18      O      0.475480000000     0.026770000000     0.949750000000    -0.396179   
O19      O      0.495640000000     0.042950000000     0.019970000000    -0.399714   
O20      O      0.524430000000     0.045500000000     0.922330000000    -0.4006     
O21      O      0.521630000000     0.008810000000     0.932480000000    -0.397893   
O22      O      0.491030000000     0.005480000000     0.029240000000    -0.395916   
O23      O      0.472850000000     0.990040000000     0.958680000000    -0.399653   
O24      O      0.540240000000     0.024330000000     0.004260000000    -0.397489   
O25      O      0.205530000000     0.370890000000     0.373120000000    -0.398837   
O26      O      0.139360000000     0.348210000000     0.326990000000    -0.397395   
O27      O      0.157740000000     0.357250000000     0.398730000000    -0.399032   
O28      O      0.187550000000     0.361860000000     0.300920000000    -0.397756   
O29      O      0.178430000000     0.322390000000     0.305440000000    -0.399097   
O30      O      0.148510000000     0.317850000000     0.403010000000    -0.395185   
O31      O      0.130610000000     0.308830000000     0.331170000000    -0.3984     
O32      O      0.196800000000     0.331540000000     0.377540000000    -0.396358   
O33      O      0.874170000000     0.235570000000     0.179320000000    -0.394819   
O34      O      0.803770000000     0.195970000000     0.145240000000    -0.395289   
O35      O      0.827920000000     0.201500000000     0.211240000000    -0.399987   
O36      O      0.849810000000     0.230200000000     0.112040000000    -0.399447   
O37      O      0.857790000000     0.200000000000     0.099130000000    -0.396651   
O38      O      0.832660000000     0.169420000000     0.196700000000    -0.39601    
O39      O      0.810260000000     0.165440000000     0.127720000000    -0.396895   
O40      O      0.879370000000     0.203420000000     0.167660000000    -0.398063   
O41      O      0.537220000000     0.525210000000     0.515910000000    -0.397948   
O42      O      0.463360000000     0.484170000000     0.505790000000    -0.399392   
O43      O      0.496710000000     0.500390000000     0.564670000000    -0.39779    
O44      O      0.503220000000     0.508530000000     0.457040000000    -0.399619   
O45      O      0.506350000000     0.474440000000     0.453090000000    -0.399276   
O46      O      0.499730000000     0.466230000000     0.560640000000    -0.399186   
O47      O      0.465830000000     0.449730000000     0.501690000000    -0.394488   
O48      O      0.539850000000     0.490830000000     0.512140000000    -0.397935   
O49      O      0.183850000000     0.300530000000     0.838650000000    -0.400536   
O50      O      0.141020000000     0.328830000000     0.868440000000    -0.397902   
O51      O      0.153840000000     0.315430000000     0.801490000000    -0.39814    
O52      O      0.171440000000     0.313900000000     0.905560000000    -0.396001   
O53      O      0.203210000000     0.352270000000     0.900120000000    -0.399373   
O54      O      0.185370000000     0.353990000000     0.796490000000    -0.399057   
O55      O      0.172850000000     0.367140000000     0.863790000000    -0.399735   
O56      O      0.215710000000     0.338850000000     0.832940000000    -0.398054   
O57      O      0.313420000000     0.178420000000     0.666700000000    -0.400198   
O58      O      0.343890000000     0.139580000000     0.626180000000    -0.398742   
O59      O      0.335410000000     0.151940000000     0.696780000000    -0.401102   
O60      O      0.321730000000     0.165990000000     0.596400000000    -0.400918   
O61      O      0.357510000000     0.201400000000     0.595550000000    -0.396223   
O62      O      0.372410000000     0.185780000000     0.694990000000    -0.396727   
O63      O      0.379990000000     0.174520000000     0.623140000000    -0.399334   
O64      O      0.350000000000     0.212800000000     0.666700000000    -0.397651   
O65      O      0.998550000000     0.464580000000     0.961620000000    -0.396835   
O66      O      0.967040000000     0.503890000000     0.996120000000    -0.400779   
O67      O      0.983060000000     0.496180000000     0.928090000000    -0.397974   
O68      O      0.982470000000     0.472530000000     0.029300000000    -0.398461   
O69      O      0.019680000000     0.504860000000     0.038260000000    -0.395591   
O70      O      0.020050000000     0.528900000000     0.937400000000    -0.396948   
O71      O      0.004010000000     0.536680000000     0.005680000000    -0.400074   
O72      O      0.035520000000     0.497600000000     0.970350000000    -0.399793   
O73      O      0.646520000000     0.853890000000     0.320880000000    -0.39856    
O74      O      0.669910000000     0.807860000000     0.284740000000    -0.398813   
O75      O      0.658630000000     0.819970000000     0.353340000000    -0.396315   
O76      O      0.657650000000     0.842250000000     0.251670000000    -0.398203   
O77      O      0.696430000000     0.872510000000     0.257480000000    -0.398372   
O78      O      0.697510000000     0.850050000000     0.359070000000    -0.397067   
O79      O      0.708560000000     0.838400000000     0.290210000000    -0.39849    
O80      O      0.685160000000     0.884290000000     0.326890000000    -0.399293   
O81      O      0.791760000000     0.665540000000     0.128430000000    -0.397892   
O82      O      0.834240000000     0.639770000000     0.086630000000    -0.399927   
O83      O      0.823650000000     0.649080000000     0.157300000000    -0.398377   
O84      O      0.802510000000     0.655960000000     0.057550000000    -0.399782   
O85      O      0.833500000000     0.694930000000     0.054860000000    -0.398664   
O86      O      0.855160000000     0.687750000000     0.154200000000    -0.398481   
O87      O      0.865520000000     0.678400000000     0.083130000000    -0.397396   
O88      O      0.823600000000     0.704090000000     0.126390000000    -0.401459   
O89      O      0.530500000000     0.989490000000     0.468860000000    -0.40003    
O90      O      0.483960000000     0.016510000000     0.477480000000    -0.398474   
O91      O      0.504410000000     0.002710000000     0.419030000000    -0.399289   
O92      O      0.510470000000     0.002990000000     0.526870000000    -0.397859   
O93      O      0.541940000000     0.041710000000     0.524710000000    -0.398798   
O94      O      0.535770000000     0.041510000000     0.416770000000    -0.398677   
O95      O      0.515710000000     0.055100000000     0.475260000000    -0.399306   
O96      O      0.562160000000     0.028090000000     0.466110000000    -0.399245   
O97      O      0.360140000000     0.140870000000     0.166940000000    -0.395633   
O98      O      0.400610000000     0.213080000000     0.136950000000    -0.39647    
O99      O      0.381530000000     0.186990000000     0.203700000000    -0.398812   
O100     O      0.379250000000     0.166660000000     0.100450000000    -0.398008   
O101     O      0.344020000000     0.166380000000     0.092870000000    -0.396613   
O102     O      0.348490000000     0.190730000000     0.194910000000    -0.397173   
O103     O      0.366340000000     0.214200000000     0.126860000000    -0.399455   
O104     O      0.326160000000     0.143110000000     0.161360000000    -0.398898   
O105     O      0.543900000000     0.487990000000     0.027920000000    -0.398674   
O106     O      0.580490000000     0.560050000000     0.995820000000    -0.396961   
O107     O      0.570960000000     0.534920000000     0.063330000000    -0.399432   
O108     O      0.553170000000     0.512570000000     0.960490000000    -0.398657   
O109     O      0.519090000000     0.514810000000     0.966030000000    -0.399587   
O110     O      0.537240000000     0.537730000000     0.068540000000    -0.395271   
O111     O      0.546150000000     0.561770000000     0.000930000000    -0.398483   
O112     O      0.509770000000     0.490110000000     0.033710000000    -0.398898   
O113     O      0.195510000000     0.874770000000     0.287670000000    -0.40038    
O114     O      0.149600000000     0.800330000000     0.284350000000    -0.399697   
O115     O      0.168640000000     0.839640000000     0.232490000000    -0.40071    
O116     O      0.176660000000     0.835760000000     0.339130000000    -0.40113    
O117     O      0.144250000000     0.840400000000     0.348760000000    -0.397092   
O118     O      0.137070000000     0.845730000000     0.241630000000    -0.397297   
O119     O      0.117690000000     0.805910000000     0.293120000000    -0.398344   
O120     O      0.163730000000     0.880450000000     0.297120000000    -0.397874   
O121     O      0.032970000000     0.553790000000     0.463430000000    -0.397038   
O122     O      0.004250000000     0.484760000000     0.505810000000    -0.3974     
O123     O      0.015660000000     0.505650000000     0.434730000000    -0.400296   
O124     O      0.021830000000     0.533340000000     0.534560000000    -0.397963   
O125     O      0.984250000000     0.528180000000     0.530080000000    -0.397087   
O126     O      0.977980000000     0.500200000000     0.430280000000    -0.398254   
O127     O      0.966870000000     0.479850000000     0.501620000000    -0.399064   
O128     O      0.995580000000     0.548850000000     0.458720000000    -0.396264   
O129     O      0.866860000000     0.222450000000     0.662180000000    -0.398373   
O130     O      0.824060000000     0.147510000000     0.658310000000    -0.399897   
O131     O      0.846600000000     0.186120000000     0.606290000000    -0.399669   
O132     O      0.844050000000     0.183410000000     0.714510000000    -0.399481   
O133     O      0.811120000000     0.187930000000     0.713670000000    -0.399157   
O134     O      0.813260000000     0.189950000000     0.605360000000    -0.398982   
O135     O      0.790660000000     0.151230000000     0.658260000000    -0.397926   
O136     O      0.833530000000     0.226270000000     0.660720000000    -0.399213   
O137     O      0.689870000000     0.821310000000     0.829380000000    -0.398319   
O138     O      0.711790000000     0.888610000000     0.784650000000    -0.397658   
O139     O      0.703330000000     0.869650000000     0.856560000000    -0.396255   
O140     O      0.698380000000     0.840650000000     0.757650000000    -0.39795    
O141     O      0.659220000000     0.830780000000     0.754480000000    -0.398385   
O142     O      0.664500000000     0.860870000000     0.852480000000    -0.398825   
O143     O      0.672920000000     0.879530000000     0.780210000000    -0.397661   
O144     O      0.651040000000     0.812660000000     0.826740000000    -0.399253   
S1       S      0.741980000000     0.916610000000     0.725000000000    -0.0411756  
S2       S      0.014890000000     0.461520000000     0.561900000000    -0.0401349  
S3       S      0.065210000000     0.578850000000     0.406340000000    -0.0395228  
S4       S      0.552420000000     0.609440000000     0.021840000000    -0.0415534  
S5       S      0.362880000000     0.109400000000     0.218080000000    -0.0386051  
S6       S      0.439990000000     0.242380000000     0.087950000000    -0.0396639  
S7       S      0.645050000000     0.775310000000     0.398890000000    -0.0419753  
S8       S      0.731900000000     0.916960000000     0.902310000000    -0.0444932  
S9       S      0.743690000000     0.823850000000     0.310150000000    -0.0391392  
S10      S      0.614110000000     0.851030000000     0.375610000000    -0.0383791  
S11      S      0.052140000000     0.541770000000     0.878600000000    -0.0390734  
S12      S      0.052540000000     0.502890000000     0.085120000000    -0.0389172  
S13      S      0.912930000000     0.686870000000     0.092430000000    -0.0372823  
S14      S      0.385750000000     0.131520000000     0.053050000000    -0.0419662  
S15      S      0.284520000000     0.176210000000     0.542480000000    -0.0517976  
S16      S      0.501940000000     0.089510000000     0.438180000000    -0.0439203  
S17      S      0.104690000000     0.320300000000     0.920870000000    -0.0387347  
S18      S      0.349020000000     0.257710000000     0.651440000000    -0.0396518  
S19      S      0.460390000000     0.492830000000     0.622090000000    -0.0420133  
S20      S      0.537700000000     0.573960000000     0.112790000000    -0.0348392  
S21      S      0.898670000000     0.211920000000     0.056670000000    -0.0395931  
S22      S      0.850850000000     0.152270000000     0.251470000000    -0.0386752  
S23      S      0.111400000000     0.283300000000     0.445560000000    -0.0388337  
S24      S      0.183540000000     0.284310000000     0.956660000000    -0.0429999  
S25      S      0.900980000000     0.268990000000     0.234390000000    -0.0376067  
S26      S      0.422570000000     0.405330000000     0.530670000000    -0.0400779  
S27      S      0.519140000000     0.973370000000     0.578530000000    -0.0406905  
S28      S      0.451720000000     0.970890000000     0.069900000000    -0.0397856  
S29      S      0.758680000000     0.177630000000     0.181810000000    -0.0366031  
S30      S      0.243550000000     0.895050000000     0.684130000000    -0.0542309  
S31      S      0.182250000000     0.814570000000     0.908450000000    -0.0369694  
S32      S      0.234780000000     0.917140000000     0.855660000000    -0.0386357  
S33      S      0.852350000000     0.703230000000     0.694030000000     0.0683789  
S34      S      0.890660000000     0.715410000000     0.506150000000    -0.0403225  
S35      S      0.781080000000     0.675580000000     0.568820000000    -0.0379612  
S36      S      0.926970000000     0.658080000000     0.594110000000    -0.0403545  


