data_structure

_audit_creation_method RASPA-1.0
_audit_creation_date 2023-5-25
_audit_author_name 'Poobodin Mano'

_cell_length_a    37.3341
_cell_length_b    37.5762
_cell_length_c    37.208
_cell_angle_alpha 90
_cell_angle_beta  90
_cell_angle_gamma 90
_cell_volume      52198.1

_symmetry_cell_setting          triclinic
_symmetry_space_group_name_Hall 'P 1'
_symmetry_space_group_name_H-M  'P 1'
_symmetry_Int_Tables_number     1

_symmetry_equiv_pos_as_xyz 'x,y,z'

loop_
_atom_site_label
_atom_site_type_symbol
_atom_site_fract_x
_atom_site_fract_y
_atom_site_fract_z
_atom_site_charge
C1       C      0.068110000000     0.959090000000     0.016070000000     0.302184   
C2       C      0.956230000000     0.044960000000     0.025530000000     0.298092   
C3       C      0.968580000000     0.947510000000     0.010250000000     0.305174   
C4       C      0.055800000000     0.056520000000     0.031270000000     0.303757   
C5       C      0.071640000000     0.009880000000     0.523000000000     0.40025    
C6       C      0.931920000000     0.038620000000     0.517680000000     0.397539   
C7       C      0.016610000000     0.092350000000     0.508680000000     0.306913   
C8       C      0.987070000000     0.956560000000     0.531830000000     0.298834   
C9       C      0.064190000000     0.492230000000     0.081800000000     0.475203   
C10      C      0.014290000000     0.503850000000     0.955310000000     0.474948   
C11      C      0.102210000000     0.496570000000     0.993640000000     0.363922   
C12      C      0.976680000000     0.493130000000     0.043830000000     0.371605   
C13      C      0.998800000000     0.509160000000     0.582530000000     0.472982   
C14      C      0.010760000000     0.497890000000     0.447060000000     0.475738   
C15      C      0.070990000000     0.503370000000     0.523120000000     0.477795   
C16      C      0.935780000000     0.504530000000     0.509160000000     0.483071   
C17      C      0.495070000000     0.012210000000     0.086880000000     0.377378   
C18      C      0.538000000000     0.019670000000     0.958720000000     0.36982    
C19      C      0.519220000000     0.948600000000     0.021870000000     0.477301   
C20      C      0.519170000000     0.083130000000     0.027910000000     0.472535   
C21      C      0.527360000000     0.076030000000     0.532310000000     0.370846   
C22      C      0.480880000000     0.950260000000     0.524350000000     0.376719   
C23      C      0.440100000000     0.035220000000     0.524710000000     0.472589   
C24      C      0.568430000000     0.990140000000     0.524220000000     0.482968   
C25      C      0.518470000000     0.522920000000     0.918670000000     0.470564   
C26      C      0.540790000000     0.493160000000     0.049140000000     0.474178   
C27      C      0.530310000000     0.575690000000     0.995110000000     0.475701   
C28      C      0.531010000000     0.444120000000     0.967400000000     0.476243   
C29      C      0.434040000000     0.504240000000     0.467740000000     0.476872   
C30      C      0.564050000000     0.501690000000     0.507450000000     0.476983   
C31      C      0.516680000000     0.495550000000     0.421560000000     0.473826   
C32      C      0.478540000000     0.507190000000     0.551840000000     0.476819   
C33      C      0.466930000000     0.538270000000     0.835330000000    -0.0260161  
C34      C      0.483570000000     0.489780000000     0.647420000000    -0.0318812  
C35      C      0.450450000000     0.542480000000     0.600590000000    -0.00205526 
C36      C      0.468700000000     0.478640000000     0.610840000000    -0.00154766 
C37      C      0.498570000000     0.549400000000     0.709810000000    -0.0542157  
C38      C      0.459970000000     0.511260000000     0.761430000000    -0.0565495  
C39      C      0.470670000000     0.526570000000     0.698840000000     0.061818   
C40      C      0.465120000000     0.551320000000     0.637910000000    -0.0319384  
C41      C      0.486660000000     0.535430000000     0.772500000000     0.0650134  
C42      C      0.525610000000     0.514900000000     0.819910000000    -0.00533186 
C43      C      0.505840000000     0.554250000000     0.746300000000    -0.0524446  
C44      C      0.541330000000     0.525410000000     0.856600000000    -0.0522426  
C45      C      0.479550000000     0.549990000000     0.872530000000    -0.00338163 
C46      C      0.451650000000     0.507570000000     0.725040000000    -0.0525769  
C47      C      0.564180000000     0.558470000000     0.853740000000     0.31357    
C48      C      0.515490000000     0.471870000000     0.141280000000    -0.0245069  
C49      C      0.550210000000     0.517480000000     0.328960000000    -0.0315286  
C50      C      0.513980000000     0.459570000000     0.366790000000    -0.00499475 
C51      C      0.532840000000     0.525480000000     0.365280000000    -0.00111604 
C52      C      0.563760000000     0.465910000000     0.258340000000    -0.054152   
C53      C      0.521940000000     0.507260000000     0.212010000000    -0.0564207  
C54      C      0.536850000000     0.488140000000     0.272590000000     0.0622894  
C55      C      0.531450000000     0.456060000000     0.329850000000    -0.0295481  
C56      C      0.546540000000     0.482650000000     0.197650000000     0.0655017  
C57      C      0.571890000000     0.504610000000     0.141920000000    -0.00464319 
C58      C      0.568000000000     0.462800000000     0.221140000000    -0.0522252  
C59      C      0.580110000000     0.494070000000     0.102700000000    -0.0531531  
C60      C      0.521530000000     0.459550000000     0.102750000000    -0.00381534 
C61      C      0.516760000000     0.509380000000     0.249100000000    -0.0514353  
C62      C      0.607190000000     0.464220000000     0.100900000000     0.311899   
C63      C      0.561350000000     0.819480000000     0.436740000000    -0.023541   
C64      C      0.479040000000     0.648920000000     0.488830000000    -0.0247767  
C65      C      0.527410000000     0.601400000000     0.452310000000    -0.0178143  
C66      C      0.471180000000     0.609150000000     0.483840000000    -0.0147048  
C67      C      0.528890000000     0.713930000000     0.492120000000    -0.0551249  
C68      C      0.507270000000     0.758390000000     0.435880000000    -0.0569326  
C69      C      0.510000000000     0.699470000000     0.462740000000     0.0615617  
C70      C      0.536120000000     0.640900000000     0.456920000000    -0.023175   
C71      C      0.526740000000     0.772670000000     0.464940000000     0.0643952  
C72      C      0.505660000000     0.833700000000     0.468520000000    -0.00280538 
C73      C      0.537140000000     0.750200000000     0.493070000000    -0.0526476  
C74      C      0.518220000000     0.872230000000     0.475110000000    -0.0699846  
C75      C      0.575130000000     0.857490000000     0.442120000000    -0.0252066  
C76      C      0.499100000000     0.722070000000     0.434860000000    -0.0531147  
C77      C      0.532520000000     0.877570000000     0.512810000000     0.314082   
C78      C      0.465400000000     0.358300000000     0.478930000000    -0.0233025  
C79      C      0.490860000000     0.188960000000     0.574540000000    -0.0257987  
C80      C      0.444630000000     0.137910000000     0.538310000000    -0.0257001  
C81      C      0.479270000000     0.154640000000     0.593410000000    -0.0239712  
C82      C      0.448790000000     0.263400000000     0.544630000000    -0.0523059  
C83      C      0.506360000000     0.275530000000     0.498150000000    -0.0517885  
C84      C      0.470300000000     0.234780000000     0.533910000000     0.0624748  
C85      C      0.456660000000     0.172760000000     0.520720000000    -0.0240143  
C86      C      0.484950000000     0.304190000000     0.509030000000     0.0649042  
C87      C      0.509080000000     0.360700000000     0.527980000000    -0.000947038
C88      C      0.456070000000     0.297860000000     0.532550000000    -0.0561322  
C89      C      0.523220000000     0.396610000000     0.514180000000    -0.0621069  
C90      C      0.478190000000     0.394730000000     0.465440000000    -0.012032   
C91      C      0.499320000000     0.241110000000     0.510560000000    -0.0539263  
C92      C      0.556350000000     0.392090000000     0.490980000000     0.313256   
C93      C      0.557920000000     0.671630000000     0.988750000000    -0.0264544  
C94      C      0.505600000000     0.856130000000     0.990210000000    -0.0312484  
C95      C      0.536510000000     0.892900000000     0.051690000000    -0.00365358 
C96      C      0.492040000000     0.893270000000     0.999790000000    -0.00179607 
C97      C      0.488080000000     0.779130000000     0.012320000000    -0.0515893  
C98      C      0.554360000000     0.744720000000     0.013050000000    -0.0549404  
C99      C      0.519250000000     0.799290000000     0.017790000000     0.0611888  
C100     C      0.546420000000     0.854980000000     0.040670000000    -0.0304612  
C101     C      0.523010000000     0.724770000000     0.006360000000     0.0641617  
C102     C      0.508460000000     0.666280000000     0.030070000000    -0.0066305  
C103     C      0.490020000000     0.742640000000     0.005730000000    -0.0530678  
C104     C      0.498470000000     0.628880000000     0.016960000000    -0.0547924  
C105     C      0.553150000000     0.633520000000     0.975150000000    -0.00343193 
C106     C      0.552610000000     0.781590000000     0.017580000000    -0.053246   
C107     C      0.465860000000     0.630590000000     0.992910000000     0.317871   
C108     C      0.491420000000     0.174060000000     0.004720000000    -0.0256206  
C109     C      0.561830000000     0.353740000000     0.975380000000    -0.0319539  
C110     C      0.497850000000     0.389790000000     0.949260000000    -0.00171202 
C111     C      0.564910000000     0.388810000000     0.954750000000    -0.00156332 
C112     C      0.522810000000     0.293330000000     0.015760000000    -0.0549043  
C113     C      0.530490000000     0.235150000000     0.969520000000    -0.0567308  
C114     C      0.528160000000     0.299030000000     0.978730000000     0.0622945  
C115     C      0.496520000000     0.354630000000     0.969840000000    -0.0320679  
C116     C      0.524120000000     0.229440000000     0.006390000000     0.0648459  
C117     C      0.554840000000     0.174360000000     0.019620000000    -0.00491386 
C118     C      0.520630000000     0.258750000000     0.029330000000    -0.0519223  
C119     C      0.551760000000     0.139130000000     0.040460000000    -0.053664   
C120     C      0.485160000000     0.139510000000     0.025290000000    -0.0038874  
C121     C      0.532280000000     0.269720000000     0.955890000000    -0.0529185  
C122     C      0.551970000000     0.145550000000     0.080530000000     0.311718   
C123     C      0.468320000000     0.008030000000     0.672220000000    -0.0173149  
C124     C      0.508740000000     0.942060000000     0.853970000000    -0.0260296  
C125     C      0.449160000000     0.972580000000     0.894030000000    -0.0237081  
C126     C      0.509620000000     0.943890000000     0.895080000000    -0.0224908  
C127     C      0.501260000000     0.004700000000     0.784900000000    -0.0528843  
C128     C      0.478860000000     0.948340000000     0.741270000000    -0.0525779  
C129     C      0.488260000000     0.973490000000     0.800830000000     0.0620168  
C130     C      0.449410000000     0.970130000000     0.852930000000    -0.0255865  
C131     C      0.492080000000     0.979450000000     0.725340000000     0.064565   
C132     C      0.530070000000     0.987420000000     0.672940000000     0.00191935 
C133     C      0.503070000000     0.007830000000     0.747490000000    -0.057188   
C134     C      0.530460000000     0.984970000000     0.631650000000    -0.0667348  
C135     C      0.467400000000     0.005740000000     0.631130000000    -0.019449   
C136     C      0.476790000000     0.945320000000     0.778670000000    -0.0553054  
C137     C      0.525820000000     0.946910000000     0.619180000000     0.306869   
C138     C      0.426010000000     0.031140000000     0.203350000000    -0.0241119  
C139     C      0.497740000000     0.058410000000     0.385070000000    -0.0170424  
C140     C      0.481990000000     0.992480000000     0.421030000000    -0.0258725  
C141     C      0.498060000000     0.055200000000     0.426040000000    -0.0302548  
C142     C      0.495580000000     0.032060000000     0.307230000000    -0.0550314  
C143     C      0.428350000000     0.053880000000     0.282390000000    -0.0558567  
C144     C      0.467380000000     0.037230000000     0.331830000000     0.0636963  
C145     C      0.481600000000     0.995950000000     0.380000000000    -0.019426   
C146     C      0.456620000000     0.049010000000     0.257810000000     0.065168   
C147     C      0.443960000000     0.093280000000     0.212170000000    -0.00148491 
C148     C      0.490120000000     0.037950000000     0.270540000000    -0.0515237  
C149     C      0.444390000000     0.099900000000     0.171300000000    -0.072324   
C150     C      0.425690000000     0.036180000000     0.162530000000    -0.0232128  
C151     C      0.433820000000     0.048030000000     0.319060000000    -0.052123   
C152     C      0.481730000000     0.098750000000     0.155530000000     0.316312   
C153     C      0.656110000000     0.534280000000     0.513730000000    -0.026682   
C154     C      0.842200000000     0.471610000000     0.513970000000    -0.031483   
C155     C      0.879920000000     0.537930000000     0.498820000000    -0.00281601 
C156     C      0.880410000000     0.470160000000     0.499370000000    -0.00204752 
C157     C      0.772850000000     0.503580000000     0.543240000000    -0.0550644  
C158     C      0.725380000000     0.502350000000     0.485100000000    -0.0565053  
C159     C      0.786250000000     0.503270000000     0.507860000000     0.0625051  
C160     C      0.841660000000     0.536160000000     0.513270000000    -0.0307658  
C161     C      0.711940000000     0.502690000000     0.520470000000     0.0650337  
C162     C      0.656820000000     0.469450000000     0.515090000000    -0.0028557  
C163     C      0.735940000000     0.503280000000     0.549370000000    -0.0519207  
C164     C      0.617460000000     0.467880000000     0.527180000000    -0.055363   
C165     C      0.617430000000     0.535520000000     0.526950000000    -0.00264803 
C166     C      0.762250000000     0.502660000000     0.478980000000    -0.0524547  
C167     C      0.614300000000     0.459750000000     0.566810000000     0.313443   
C168     C      0.343760000000     0.537790000000     0.470560000000    -0.0272506  
C169     C      0.162900000000     0.472240000000     0.513320000000    -0.0302701  
C170     C      0.126530000000     0.538210000000     0.532220000000    -0.00218003 
C171     C      0.127860000000     0.471200000000     0.534600000000    -0.00406593 
C172     C      0.247260000000     0.507650000000     0.528770000000    -0.0530242  
C173     C      0.258150000000     0.504550000000     0.454450000000    -0.0521994  
C174     C      0.217720000000     0.505730000000     0.505710000000     0.0622048  
C175     C      0.161450000000     0.537140000000     0.510860000000    -0.031346   
C176     C      0.287710000000     0.506310000000     0.477540000000     0.0645555  
C177     C      0.342530000000     0.472710000000     0.472860000000    -0.00373913 
C178     C      0.282010000000     0.507930000000     0.514940000000    -0.0569502  
C179     C      0.378910000000     0.470240000000     0.453660000000    -0.0532005  
C180     C      0.379370000000     0.537490000000     0.450270000000    -0.00243169 
C181     C      0.223370000000     0.504300000000     0.468310000000    -0.0554405  
C182     C      0.374860000000     0.461430000000     0.414250000000     0.309434   
C183     C      0.864170000000     0.518740000000     0.982010000000    -0.018677   
C184     C      0.672700000000     0.486660000000     0.948560000000    -0.0220752  
C185     C      0.636060000000     0.530250000000     0.000410000000    -0.0255276  
C186     C      0.633230000000     0.481050000000     0.958120000000    -0.0177949  
C187     C      0.743820000000     0.527690000000     0.946290000000    -0.0559377  
C188     C      0.789880000000     0.485030000000     0.987030000000    -0.0552668  
C189     C      0.729680000000     0.505210000000     0.973050000000     0.0646514  
C190     C      0.675510000000     0.536260000000     0.990980000000    -0.0180546  
C191     C      0.804010000000     0.507330000000     0.960110000000     0.0644648  
C192     C      0.853410000000     0.473330000000     0.936020000000     0.00109168 
C193     C      0.780710000000     0.528690000000     0.939990000000    -0.0508885  
C194     C      0.892170000000     0.476130000000     0.922490000000    -0.0746262  
C195     C      0.903010000000     0.523330000000     0.969670000000    -0.0254978  
C196     C      0.753020000000     0.484120000000     0.993400000000    -0.0525682  
C197     C      0.894420000000     0.497070000000     0.887940000000     0.315816   
C198     C      0.387620000000     0.471150000000     0.005220000000    -0.0184805  
C199     C      0.210760000000     0.524350000000     0.073770000000    -0.0262023  
C200     C      0.169020000000     0.459460000000     0.064870000000    -0.0251826  
C201     C      0.169770000000     0.525470000000     0.073610000000    -0.0235646  
C202     C      0.285330000000     0.488360000000     0.076090000000    -0.0546523  
C203     C      0.312960000000     0.503180000000     0.007830000000    -0.0567368  
C204     C      0.261780000000     0.494670000000     0.047200000000     0.0621771  
C205     C      0.210010000000     0.459630000000     0.064930000000    -0.0250442  
C206     C      0.336530000000     0.496150000000     0.036550000000     0.0652946  
C207     C      0.388220000000     0.533130000000     0.024750000000     0.00408334 
C208     C      0.322380000000     0.488930000000     0.070630000000    -0.052584   
C209     C      0.429420000000     0.533340000000     0.024160000000    -0.0709849  
C210     C      0.428640000000     0.470710000000     0.004150000000    -0.0181973  
C211     C      0.275930000000     0.502220000000     0.013200000000    -0.0524216  
C212     C      0.445100000000     0.528410000000     0.061390000000     0.310959   
C213     C      0.991320000000     0.482920000000     0.679400000000    -0.0263312  
C214     C      0.000110000000     0.544170000000     0.866390000000    -0.0296915  
C215     C      0.994510000000     0.474050000000     0.899540000000    -0.00188522 
C216     C      0.989870000000     0.541030000000     0.906090000000    -0.00420854 
C217     C      0.026140000000     0.519160000000     0.792350000000    -0.0570823  
C218     C      0.965070000000     0.516670000000     0.748850000000    -0.0544472  
C219     C      0.992030000000     0.516390000000     0.808280000000     0.0666857  
C220     C      0.004440000000     0.479880000000     0.860170000000    -0.0285524  
C221     C      0.999270000000     0.518280000000     0.732960000000     0.0642187  
C222     C      0.988420000000     0.547030000000     0.675540000000    -0.00546259 
C223     C      0.029600000000     0.520000000000     0.755000000000    -0.0515283  
C224     C      0.001330000000     0.547400000000     0.636280000000    -0.05391    
C225     C      0.004520000000     0.479100000000     0.640780000000    -0.00227366 
C226     C      0.961610000000     0.515670000000     0.786240000000    -0.0532755  
C227     C      0.039430000000     0.560780000000     0.634160000000     0.316299   
C228     C      0.034380000000     0.458840000000     0.358030000000    -0.0261206  
C229     C      0.067490000000     0.519590000000     0.173790000000    -0.0318829  
C230     C      0.082950000000     0.454860000000     0.133610000000    -0.00288185 
C231     C      0.086300000000     0.521400000000     0.137380000000    -0.00190179 
C232     C      0.086700000000     0.485010000000     0.256640000000    -0.0526178  
C233     C      0.013140000000     0.486200000000     0.270810000000    -0.0523073  
C234     C      0.062370000000     0.484840000000     0.227990000000     0.062218   
C235     C      0.064590000000     0.454560000000     0.170420000000    -0.0313846  
C236     C      0.037450000000     0.486680000000     0.299440000000     0.0641766  
C237     C      0.033350000000     0.523020000000     0.352830000000    -0.00755214 
C238     C      0.074470000000     0.485990000000     0.292130000000    -0.0562691  
C239     C      0.012170000000     0.527590000000     0.387880000000    -0.0519553  
C240     C      0.013560000000     0.459480000000     0.393420000000    -0.00429186 
C241     C      0.025360000000     0.485360000000     0.235350000000    -0.0545971  
C242     C      0.973660000000     0.537030000000     0.379790000000     0.320797   
C243     C      0.038370000000     0.644510000000     0.485520000000    -0.0213586  
C244     C      0.986190000000     0.833220000000     0.483470000000    -0.0264981  
C245     C      0.052230000000     0.866820000000     0.459290000000    -0.0241193  
C246     C      0.992130000000     0.873240000000     0.488250000000    -0.0218767  
C247     C      0.028610000000     0.756820000000     0.513620000000    -0.0520676  
C248     C      0.996680000000     0.721250000000     0.455890000000    -0.0523454  
C249     C      0.016640000000     0.776330000000     0.483870000000     0.0618297  
C250     C      0.045190000000     0.826860000000     0.455140000000    -0.0257767  
C251     C      0.008590000000     0.701760000000     0.485660000000     0.0649432  
C252     C      0.980330000000     0.651210000000     0.514770000000    -0.00336021 
C253     C      0.024700000000     0.719830000000     0.514620000000    -0.0571593  
C254     C      0.972290000000     0.611380000000     0.509670000000    -0.0591902  
C255     C      0.031720000000     0.604600000000     0.480630000000    -0.0157231  
C256     C      0.000640000000     0.758220000000     0.454880000000    -0.0553326  
C257     C      0.948350000000     0.605520000000     0.477240000000     0.308536   
C258     C      0.967970000000     0.361160000000     0.507140000000    -0.0233473  
C259     C      0.986630000000     0.180480000000     0.579690000000    -0.0251291  
C260     C      0.925420000000     0.144980000000     0.546910000000    -0.0256293  
C261     C      0.972220000000     0.145550000000     0.595150000000    -0.0216301  
C262     C      0.952890000000     0.264890000000     0.569330000000    -0.0526889  
C263     C      0.003620000000     0.276240000000     0.515210000000    -0.0525851  
C264     C      0.968120000000     0.235650000000     0.551720000000     0.0622934  
C265     C      0.940700000000     0.180070000000     0.532610000000    -0.0239612  
C266     C      0.988180000000     0.305520000000     0.532650000000     0.0644079  
C267     C      0.017010000000     0.360420000000     0.550920000000    -0.00377788 
C268     C      0.962810000000     0.299540000000     0.560040000000    -0.0563946  
C269     C      0.030290000000     0.396790000000     0.537200000000    -0.0589904  
C270     C      0.980400000000     0.397530000000     0.493510000000    -0.0124263  
C271     C      0.993840000000     0.241540000000     0.524660000000    -0.0539037  
C272     C      0.060870000000     0.392700000000     0.510640000000     0.308966   
C273     C      0.840440000000     0.032570000000     0.550420000000    -0.0259268  
C274     C      0.658070000000     0.989690000000     0.489830000000    -0.031524   
C275     C      0.623280000000     0.972890000000     0.557820000000    -0.00127468 
C276     C      0.622200000000     0.969970000000     0.490550000000    -0.0016648  
C277     C      0.720280000000     0.033740000000     0.518990000000    -0.0554219  
C278     C      0.778610000000     0.987080000000     0.521480000000    -0.0564876  
C279     C      0.714250000000     0.996800000000     0.521480000000     0.0622258  
C280     C      0.659150000000     0.992570000000     0.555580000000    -0.0317902  
C281     C      0.784630000000     0.024000000000     0.518670000000     0.0642809  
C282     C      0.840210000000     0.026660000000     0.485120000000    -0.003526   
C283     C      0.755210000000     0.047090000000     0.517530000000    -0.0519481  
C284     C      0.876340000000     0.046210000000     0.481880000000    -0.0560233  
C285     C      0.875620000000     0.053400000000     0.549640000000    -0.00636267 
C286     C      0.743680000000     0.973720000000     0.522790000000    -0.0527711  
C287     C      0.871350000000     0.084360000000     0.470060000000     0.306643   
C288     C      0.348570000000     0.036920000000     0.557440000000    -0.0269423  
C289     C      0.164580000000     0.009720000000     0.491970000000    -0.0307349  
C290     C      0.126240000000     0.999760000000     0.559430000000    -0.00635136 
C291     C      0.127640000000     0.992020000000     0.492070000000    -0.00652266 
C292     C      0.229230000000     0.050460000000     0.522470000000    -0.055282   
C293     C      0.282990000000     0.998890000000     0.527850000000    -0.0568341  
C294     C      0.219860000000     0.014270000000     0.525570000000     0.0614861  
C295     C      0.163150000000     0.017220000000     0.557030000000    -0.0304439  
C296     C      0.292380000000     0.035110000000     0.525090000000     0.0640562  
C297     C      0.348020000000     0.034090000000     0.491950000000    -0.00416549 
C298     C      0.265230000000     0.060670000000     0.522300000000    -0.0524316  
C299     C      0.385770000000     0.050360000000     0.489550000000    -0.0546322  
C300     C      0.385620000000     0.054230000000     0.557680000000    -0.00236993 
C301     C      0.247010000000     0.988700000000     0.528180000000    -0.0528528  
C302     C      0.384270000000     0.089200000000     0.479210000000     0.308328   
C303     C      0.062900000000     0.642770000000     0.005660000000    -0.0181596  
C304     C      0.001160000000     0.823640000000     0.050060000000    -0.0263553  
C305     C      0.054390000000     0.867110000000     0.013340000000    -0.0236143  
C306     C      0.005940000000     0.863000000000     0.059600000000    -0.0240107  
C307     C      0.010640000000     0.755580000000     0.005420000000    -0.055813   
C308     C      0.053760000000     0.711790000000     0.048130000000    -0.0567586  
C309     C      0.033410000000     0.770890000000     0.031350000000     0.0619842  
C310     C      0.048660000000     0.827730000000     0.004620000000    -0.025905   
C311     C      0.031030000000     0.696470000000     0.022150000000     0.0638342  
C312     C      0.014210000000     0.640380000000     0.049160000000     0.000945072
C313     C      0.009560000000     0.718660000000     0.000950000000    -0.0528964  
C314     C      0.007910000000     0.600820000000     0.041000000000    -0.0667663  
C315     C      0.057850000000     0.603290000000     0.996780000000    -0.0176522  
C316     C      0.054880000000     0.748700000000     0.052550000000    -0.0532754  
C317     C      0.975970000000     0.595890000000     0.016360000000     0.312169   
C318     C      0.037020000000     0.356900000000     0.970180000000    -0.0232277  
C319     C      0.008400000000     0.167230000000     0.007880000000    -0.0270627  
C320     C      0.996250000000     0.140360000000     0.935510000000    -0.0229208  
C321     C      0.991220000000     0.130740000000     0.001820000000    -0.0185456  
C322     C      0.985780000000     0.253920000000     0.984270000000    -0.0527001  
C323     C      0.057870000000     0.271220000000     0.994960000000    -0.0521789  
C324     C      0.011640000000     0.226970000000     0.983520000000     0.0624084  
C325     C      0.013550000000     0.176570000000     0.942830000000    -0.0248296  
C326     C      0.031960000000     0.298170000000     0.995870000000     0.0636463  
C327     C      0.027070000000     0.349640000000     0.034830000000    -0.00323094 
C328     C      0.995720000000     0.289240000000     0.990280000000    -0.0559516  
C329     C      0.042070000000     0.387140000000     0.041950000000    -0.0607578  
C330     C      0.051970000000     0.394260000000     0.976550000000    -0.012281   
C331     C      0.047920000000     0.235870000000     0.988740000000    -0.0555275  
C332     C      0.080790000000     0.385800000000     0.054150000000     0.310064   
C333     C      0.646580000000     0.004380000000     0.099940000000    -0.0184121  
C334     C      0.841130000000     0.972850000000     0.089030000000    -0.0249207  
C335     C      0.861830000000     0.973170000000     0.164500000000    -0.0246383  
C336     C      0.880400000000     0.977300000000     0.100080000000    -0.0251262  
C337     C      0.761550000000     0.955250000000     0.099350000000    -0.055167   
C338     C      0.726660000000     0.020780000000     0.092480000000    -0.0567779  
C339     C      0.780310000000     0.986970000000     0.106670000000     0.0622098  
C340     C      0.822920000000     0.968760000000     0.152310000000    -0.0253094  
C341     C      0.707920000000     0.989070000000     0.085090000000     0.0651404  
C342     C      0.666940000000     0.006260000000     0.037760000000     0.00275926 
C343     C      0.725670000000     0.956430000000     0.088660000000    -0.0524688  
C344     C      0.628260000000     0.001810000000     0.024260000000    -0.0689045  
C345     C      0.607710000000     0.999900000000     0.087460000000    -0.0174648  
C346     C      0.762530000000     0.019610000000     0.103200000000    -0.0520884  
C347     C      0.620730000000     0.963710000000     0.013310000000     0.308031   
C348     C      0.377410000000     0.982590000000     0.984730000000    -0.0163057  
C349     C      0.190800000000     0.045480000000     0.977200000000    -0.0253123  
C350     C      0.152250000000     0.981150000000     0.957040000000    -0.023108   
C351     C      0.152300000000     0.047380000000     0.963180000000    -0.0246363  
C352     C      0.272220000000     0.015170000000     0.943890000000    -0.0529092  
C353     C      0.294820000000     0.010910000000     0.015410000000    -0.0528199  
C354     C      0.246660000000     0.013230000000     0.971400000000     0.0617854  
C355     C      0.190740000000     0.980420000000     0.971280000000    -0.0260961  
C356     C      0.320350000000     0.013210000000     0.987950000000     0.0650017  
C357     C      0.375660000000     0.047150000000     0.986650000000     0.00234413 
C358     C      0.308810000000     0.015090000000     0.951970000000    -0.0573306  
C359     C      0.413380000000     0.048560000000     0.003110000000    -0.0705701  
C360     C      0.415270000000     0.982430000000     0.000680000000    -0.0218111  
C361     C      0.258270000000     0.010820000000     0.007340000000    -0.0549349  
C362     C      0.411490000000     0.055060000000     0.043210000000     0.313101   
C363     C      0.999040000000     0.026070000000     0.864860000000    -0.0234388  
C364     C      0.027440000000     0.057510000000     0.672000000000    -0.0230719  
C365     C      0.956210000000     0.042950000000     0.643600000000    -0.0188924  
C366     C      0.021810000000     0.050290000000     0.631920000000    -0.0315732  
C367     C      0.005740000000     0.073580000000     0.749870000000    -0.0555252  
C368     C      0.020720000000     0.010640000000     0.787100000000    -0.0573275  
C369     C      0.006450000000     0.040950000000     0.731240000000     0.0617989  
C370     C      0.963140000000     0.050200000000     0.683500000000    -0.0277389  
C371     C      0.019890000000     0.043240000000     0.805750000000     0.0651302  
C372     C      0.063190000000     0.034340000000     0.853530000000    -0.00146762 
C373     C      0.012400000000     0.074590000000     0.786820000000    -0.052415   
C374     C      0.070220000000     0.041720000000     0.893650000000    -0.0655346  
C375     C      0.004390000000     0.033050000000     0.905020000000    -0.0246904  
C376     C      0.014020000000     0.009630000000     0.750160000000    -0.0529215  
C377     C      0.073860000000     0.080930000000     0.902020000000     0.308076   
C378     C      0.969800000000     0.942150000000     0.368900000000    -0.0220997  
C379     C      0.976780000000     0.970420000000     0.173360000000    -0.0301986  
C380     C      0.961980000000     0.898890000000     0.147080000000    -0.0218613  
C381     C      0.984740000000     0.960220000000     0.134330000000    -0.0108838  
C382     C      0.944850000000     0.962960000000     0.248550000000    -0.054928   
C383     C      0.003060000000     0.948910000000     0.293710000000    -0.0570963  
C384     C      0.976190000000     0.947590000000     0.234260000000     0.0620469  
C385     C      0.954340000000     0.910270000000     0.185850000000    -0.0257693  
C386     C      0.971850000000     0.964570000000     0.307950000000     0.0648705  
C387     C      0.995280000000     0.001000000000     0.356380000000     0.0004438  
C388     C      0.942850000000     0.971410000000     0.285080000000    -0.0526309  
C389     C      0.988440000000     0.013100000000     0.395320000000    -0.0732347  
C390     C      0.961190000000     0.952870000000     0.407620000000    -0.0187903  
C391     C      0.005110000000     0.940600000000     0.257160000000    -0.0529719  
C392     C      0.956310000000     0.037320000000     0.398000000000     0.311838   
Cu1      Cu     0.010880000000     0.996810000000     0.053820000000     0.825613   
Cu2      Cu     0.013480000000     0.007230000000     0.987770000000     0.853386   
Cu3      Cu     0.001960000000     0.019030000000     0.487390000000     0.86041    
Cu4      Cu     0.001720000000     0.029840000000     0.553070000000     0.852005   
Cu5      Cu     0.039130000000     0.458890000000     0.015190000000     1.20325    
Cu6      Cu     0.039360000000     0.534310000000     0.021590000000     1.18691    
Cu7      Cu     0.003340000000     0.466150000000     0.517500000000     1.22014    
Cu8      Cu     0.003620000000     0.541420000000     0.511840000000     1.2196     
Cu9      Cu     0.482050000000     0.016140000000     0.010430000000     1.19212    
Cu10     Cu     0.554070000000     0.015310000000     0.036180000000     1.19681    
Cu11     Cu     0.505240000000     0.014910000000     0.488130000000     1.19551    
Cu12     Cu     0.503700000000     0.011400000000     0.564860000000     1.18878    
Cu13     Cu     0.493080000000     0.507960000000     0.990430000000     1.19507    
Cu14     Cu     0.567420000000     0.510990000000     0.977960000000     1.20535    
Cu15     Cu     0.500290000000     0.539660000000     0.484440000000     1.19961    
Cu16     Cu     0.498100000000     0.464670000000     0.489920000000     1.22738    
H1       H      0.430830000000     0.489120000000     0.717040000000     0.0445087  
H2       H      0.445000000000     0.556320000000     0.826480000000     0.037113   
H3       H      0.547450000000     0.515020000000     0.799490000000     0.0360198  
H4       H      0.421100000000     0.538040000000     0.602910000000     0.0348714  
H5       H      0.485180000000     0.579030000000     0.871840000000     0.0533229  
H6       H      0.481670000000     0.466500000000     0.665830000000     0.037223   
H7       H      0.449300000000     0.573700000000     0.649370000000     0.0361493  
H8       H      0.485670000000     0.456820000000     0.600000000000     0.0454     
H9       H      0.558920000000     0.502940000000     0.865030000000     0.0626916  
H10      H      0.445460000000     0.495150000000     0.780570000000     0.0415498  
H11      H      0.457300000000     0.545860000000     0.891940000000     0.0443108  
H12      H      0.514890000000     0.563480000000     0.690520000000     0.0432758  
H13      H      0.456060000000     0.510790000000     0.837660000000     0.0366313  
H14      H      0.454600000000     0.565730000000     0.582580000000     0.0400219  
H15      H      0.512350000000     0.497190000000     0.644760000000     0.0450906  
H16      H      0.493410000000     0.560070000000     0.634720000000     0.0403706  
H17      H      0.527160000000     0.572140000000     0.754260000000     0.0537992  
H18      H      0.515000000000     0.487210000000     0.821350000000     0.0335873  
H19      H      0.441130000000     0.468080000000     0.614620000000     0.036833   
H20      H      0.564810000000     0.610030000000     0.837310000000     0.179222   
H21      H      0.496720000000     0.527410000000     0.259670000000     0.0466481  
H22      H      0.499400000000     0.451310000000     0.155530000000     0.0413709  
H23      H      0.597550000000     0.508490000000     0.156700000000     0.036184   
H24      H      0.484380000000     0.459130000000     0.363390000000     0.0484627  
H25      H      0.533010000000     0.432270000000     0.103360000000     0.0498398  
H26      H      0.550670000000     0.542560000000     0.313020000000     0.0350196  
H27      H      0.517260000000     0.434820000000     0.314600000000     0.0391928  
H28      H      0.551150000000     0.542850000000     0.381090000000     0.0353638  
H29      H      0.592100000000     0.517970000000     0.089650000000     0.0597342  
H30      H      0.506030000000     0.524110000000     0.194690000000     0.043256   
H31      H      0.495180000000     0.457650000000     0.088990000000     0.0526271  
H32      H      0.580780000000     0.450180000000     0.275670000000     0.0429436  
H33      H      0.499800000000     0.497030000000     0.140560000000     0.0417577  
H34      H      0.521200000000     0.435790000000     0.383080000000     0.0478929  
H35      H      0.578430000000     0.508620000000     0.332850000000     0.0386061  
H36      H      0.559840000000     0.447710000000     0.333530000000     0.0378007  
H37      H      0.587760000000     0.444510000000     0.210500000000     0.0542744  
H38      H      0.557360000000     0.530520000000     0.142170000000     0.0323507  
H39      H      0.507770000000     0.540810000000     0.360660000000     0.040065   
H40      H      0.620270000000     0.415520000000     0.120690000000     0.178871   
H41      H      0.484610000000     0.711370000000     0.412080000000     0.0449885  
H42      H      0.584740000000     0.801130000000     0.436220000000     0.0352363  
H43      H      0.487290000000     0.825100000000     0.490420000000     0.0448017  
H44      H      0.513490000000     0.596890000000     0.426260000000     0.0369973  
H45      H      0.593770000000     0.858280000000     0.465400000000     0.0513602  
H46      H      0.453250000000     0.663740000000     0.488140000000     0.0341304  
H47      H      0.551770000000     0.649910000000     0.433150000000     0.0333495  
H48      H      0.455130000000     0.599450000000     0.506970000000     0.0321907  
H49      H      0.495040000000     0.890400000000     0.471440000000     0.0577817  
H50      H      0.498800000000     0.775190000000     0.413840000000     0.0416884  
H51      H      0.589830000000     0.866460000000     0.417810000000     0.0368917  
H52      H      0.537690000000     0.697130000000     0.514020000000     0.0425904  
H53      H      0.547470000000     0.817770000000     0.410320000000     0.0361068  
H54      H      0.552770000000     0.585970000000     0.452200000000     0.0325119  
H55      H      0.491560000000     0.652960000000     0.515670000000     0.0380123  
H56      H      0.553060000000     0.644210000000     0.481320000000     0.0375307  
H57      H      0.552050000000     0.760810000000     0.515620000000     0.0507993  
H58      H      0.490100000000     0.832890000000     0.443000000000     0.0322515  
H59      H      0.455410000000     0.604820000000     0.458840000000     0.0364543  
H60      H      0.524800000000     0.864830000000     0.565320000000     0.189144   
H61      H      0.516780000000     0.219600000000     0.502370000000     0.0437633  
H62      H      0.456420000000     0.342290000000     0.455460000000     0.0386869  
H63      H      0.531020000000     0.345910000000     0.541700000000     0.0461581  
H64      H      0.417250000000     0.141120000000     0.549550000000     0.046564   
H65      H      0.497720000000     0.391270000000     0.443220000000     0.0517124  
H66      H      0.494720000000     0.209950000000     0.595290000000     0.0357488  
H67      H      0.435260000000     0.181820000000     0.502020000000     0.0406965  
H68      H      0.501620000000     0.144030000000     0.609920000000     0.0390338  
H69      H      0.530840000000     0.412860000000     0.537910000000     0.063104   
H70      H      0.529020000000     0.280060000000     0.480560000000     0.05272    
H71      H      0.454900000000     0.409540000000     0.454530000000     0.0418274  
H72      H      0.426690000000     0.259020000000     0.562960000000     0.0457916  
H73      H      0.442040000000     0.362440000000     0.497040000000     0.0373777  
H74      H      0.444350000000     0.116270000000     0.518060000000     0.0515962  
H75      H      0.516930000000     0.184470000000     0.560700000000     0.0383057  
H76      H      0.481390000000     0.167660000000     0.504820000000     0.0401545  
H77      H      0.439570000000     0.319560000000     0.542090000000     0.0424149  
H78      H      0.487800000000     0.365760000000     0.548350000000     0.0346146  
H79      H      0.456050000000     0.160140000000     0.611270000000     0.0400821  
H80      H      0.581440000000     0.408640000000     0.445470000000     0.178424   
H81      H      0.577520000000     0.795730000000     0.021400000000     0.0410577  
H82      H      0.569710000000     0.687700000000     0.966580000000     0.0373273  
H83      H      0.484150000000     0.679280000000     0.041420000000     0.0390555  
H84      H      0.518180000000     0.891530000000     0.075200000000     0.0371417  
H85      H      0.542010000000     0.634480000000     0.947440000000     0.0556035  
H86      H      0.483660000000     0.842040000000     0.975830000000     0.035644   
H87      H      0.554530000000     0.840190000000     0.065270000000     0.0352844  
H88      H      0.486590000000     0.908100000000     0.974500000000     0.0434885  
H89      H      0.491330000000     0.612790000000     0.041040000000     0.0708867  
H90      H      0.580470000000     0.732360000000     0.014220000000     0.041345   
H91      H      0.580100000000     0.621070000000     0.973030000000     0.0449792  
H92      H      0.462100000000     0.791940000000     0.012550000000     0.0453904  
H93      H      0.577140000000     0.671330000000     0.011660000000     0.0357991  
H94      H      0.561150000000     0.906890000000     0.060720000000     0.046181   
H95      H      0.528850000000     0.858070000000     0.971540000000     0.0424807  
H96      H      0.569730000000     0.856220000000     0.022020000000     0.0383716  
H97      H      0.465550000000     0.728040000000     0.000550000000     0.0521325  
H98      H      0.528310000000     0.664370000000     0.052370000000     0.035322   
H99      H      0.466340000000     0.890810000000     0.014690000000     0.0381948  
H100     H      0.449020000000     0.632810000000     0.941030000000     0.178274   
H101     H      0.536770000000     0.273750000000     0.927420000000     0.0453661  
H102     H      0.466270000000     0.189960000000     0.005500000000     0.0383137  
H103     H      0.577000000000     0.190580000000     0.031200000000     0.0376587  
H104     H      0.497560000000     0.383810000000     0.919990000000     0.0355775  
H105     H      0.473940000000     0.145990000000     0.052170000000     0.0627964  
H106     H      0.586270000000     0.337640000000     0.969980000000     0.0373593  
H107     H      0.472940000000     0.339150000000     0.960320000000     0.0359574  
H108     H      0.588480000000     0.403730000000     0.965050000000     0.0408193  
H109     H      0.576140000000     0.123450000000     0.033550000000     0.0649076  
H110     H      0.533770000000     0.212960000000     0.951280000000     0.0419243  
H111     H      0.464590000000     0.123920000000     0.010560000000     0.0516618  
H112     H      0.520090000000     0.315540000000     0.034070000000     0.0439055  
H113     H      0.497450000000     0.167550000000     0.976160000000     0.0370265  
H114     H      0.473390000000     0.405420000000     0.955510000000     0.0381044  
H115     H      0.560640000000     0.359470000000     0.004740000000     0.0423507  
H116     H      0.492860000000     0.360460000000     0.998950000000     0.040037   
H117     H      0.516060000000     0.254710000000     0.057780000000     0.0541781  
H118     H      0.562040000000     0.168360000000     0.991200000000     0.0328841  
H119     H      0.569780000000     0.382680000000     0.925920000000     0.0360373  
H120     H      0.527060000000     0.171620000000     0.121320000000     0.188614   
H121     H      0.466270000000     0.921050000000     0.790250000000     0.0422253  
H122     H      0.440860000000     0.002740000000     0.682570000000     0.0341612  
H123     H      0.548690000000     0.967180000000     0.684330000000     0.0347483  
H124     H      0.457700000000     0.999630000000     0.902590000000     0.0483326  
H125     H      0.454730000000     0.980480000000     0.622320000000     0.0521197  
H126     H      0.536660000000     0.944280000000     0.843750000000     0.037443   
H127     H      0.433840000000     0.992930000000     0.841960000000     0.0343659  
H128     H      0.522620000000     0.919710000000     0.906220000000     0.0390522  
H129     H      0.557310000000     0.994360000000     0.622950000000     0.0542801  
H130     H      0.470060000000     0.926400000000     0.724590000000     0.0518698  
H131     H      0.450590000000     0.027990000000     0.621270000000     0.0350301  
H132     H      0.509920000000     0.026700000000     0.801580000000     0.0458555  
H133     H      0.476190000000     0.035460000000     0.680390000000     0.0352059  
H134     H      0.421760000000     0.967530000000     0.904410000000     0.0337064  
H135     H      0.497820000000     0.915730000000     0.845700000000     0.0376251  
H136     H      0.436000000000     0.945000000000     0.844510000000     0.0367006  
H137     H      0.513020000000     0.032320000000     0.735910000000     0.0419761  
H138     H      0.540140000000     0.014150000000     0.681020000000     0.0309323  
H139     H      0.525160000000     0.967600000000     0.903670000000     0.0463265  
H140     H      0.493770000000     0.903300000000     0.621940000000     0.179018   
H141     H      0.411920000000     0.052190000000     0.337690000000     0.0496468  
H142     H      0.433370000000     0.003050000000     0.209310000000     0.0361918  
H143     H      0.463600000000     0.111080000000     0.225730000000     0.0456081  
H144     H      0.454440000000     0.996070000000     0.431790000000     0.0410045  
H145     H      0.451170000000     0.026070000000     0.150970000000     0.0513318  
H146     H      0.489570000000     0.085980000000     0.377830000000     0.0387024  
H147     H      0.461380000000     0.977110000000     0.369010000000     0.034039   
H148     H      0.518880000000     0.073530000000     0.436480000000     0.0414676  
H149     H      0.433090000000     0.126700000000     0.165830000000     0.0574876  
H150     H      0.402210000000     0.062450000000     0.273280000000     0.0433814  
H151     H      0.403130000000     0.021110000000     0.150450000000     0.0479131  
H152     H      0.521800000000     0.023820000000     0.316410000000     0.0435464  
H153     H      0.398590000000     0.036100000000     0.214020000000     0.0378784  
H154     H      0.491230000000     0.965240000000     0.427870000000     0.0408413  
H155     H      0.525270000000     0.053680000000     0.374560000000     0.0374693  
H156     H      0.508380000000     0.988480000000     0.369190000000     0.0375464  
H157     H      0.512110000000     0.034130000000     0.251940000000     0.052803   
H158     H      0.416940000000     0.100330000000     0.222680000000     0.0340113  
H159     H      0.471690000000     0.063590000000     0.437010000000     0.0531122  
H160     H      0.509910000000     0.088030000000     0.110140000000     0.197738   
H161     H      0.772230000000     0.502410000000     0.451650000000     0.0467849  
H162     H      0.670070000000     0.558680000000     0.523310000000     0.0367787  
H163     H      0.671340000000     0.445730000000     0.525630000000     0.0405904  
H164     H      0.878970000000     0.543250000000     0.469430000000     0.0469707  
H165     H      0.617480000000     0.539870000000     0.556500000000     0.0496385  
H166     H      0.827790000000     0.447260000000     0.504940000000     0.0369391  
H167     H      0.826880000000     0.560060000000     0.503640000000     0.0383592  
H168     H      0.894530000000     0.447510000000     0.512390000000     0.039754   
H169     H      0.605240000000     0.445390000000     0.512170000000     0.0738719  
H170     H      0.707410000000     0.501860000000     0.462290000000     0.0423525  
H171     H      0.604030000000     0.558840000000     0.514420000000     0.0406222  
H172     H      0.790880000000     0.504040000000     0.566010000000     0.0427627  
H173     H      0.656210000000     0.534460000000     0.483790000000     0.0371297  
H174     H      0.893600000000     0.560800000000     0.511860000000     0.0491312  
H175     H      0.843030000000     0.471510000000     0.543890000000     0.0389096  
H176     H      0.842350000000     0.536940000000     0.543190000000     0.0392141  
H177     H      0.725950000000     0.503510000000     0.576700000000     0.0531662  
H178     H      0.657630000000     0.468000000000     0.485190000000     0.0340687  
H179     H      0.879300000000     0.464570000000     0.470040000000     0.0398334  
H180     H      0.632870000000     0.472630000000     0.616470000000     0.179006   
H181     H      0.200960000000     0.502900000000     0.449910000000     0.0427515  
H182     H      0.328350000000     0.561730000000     0.462120000000     0.0363539  
H183     H      0.326240000000     0.448760000000     0.466180000000     0.0376505  
H184     H      0.133070000000     0.542480000000     0.561050000000     0.0404568  
H185     H      0.373780000000     0.539290000000     0.420980000000     0.048454   
H186     H      0.179440000000     0.448890000000     0.521290000000     0.0379772  
H187     H      0.176940000000     0.561740000000     0.516910000000     0.0361221  
H188     H      0.112760000000     0.446950000000     0.526870000000     0.0525021  
H189     H      0.393350000000     0.447620000000     0.466430000000     0.0616818  
H190     H      0.262150000000     0.503160000000     0.425650000000     0.052672   
H191     H      0.394920000000     0.561520000000     0.458010000000     0.0388855  
H192     H      0.243280000000     0.508830000000     0.557580000000     0.0456973  
H193     H      0.349300000000     0.539920000000     0.499880000000     0.0372292  
H194     H      0.110500000000     0.561390000000     0.522970000000     0.0428648  
H195     H      0.156730000000     0.469970000000     0.484120000000     0.0426021  
H196     H      0.155120000000     0.536900000000     0.481610000000     0.0392314  
H197     H      0.304370000000     0.509140000000     0.533400000000     0.0417349  
H198     H      0.347390000000     0.472400000000     0.502390000000     0.032782   
H199     H      0.134370000000     0.469120000000     0.563690000000     0.0401457  
H200     H      0.344640000000     0.469780000000     0.369610000000     0.178836   
H201     H      0.742490000000     0.466570000000     0.013940000000     0.0506751  
H202     H      0.854520000000     0.544600000000     0.992890000000     0.0417771  
H203     H      0.835600000000     0.465460000000     0.913340000000     0.0363004  
H204     H      0.634150000000     0.512320000000     0.024060000000     0.0552604  
H205     H      0.905370000000     0.547250000000     0.952300000000     0.0568046  
H206     H      0.684640000000     0.460400000000     0.941680000000     0.0361178  
H207     H      0.689580000000     0.546470000000     0.015240000000     0.0370308  
H208     H      0.618890000000     0.471090000000     0.934000000000     0.0380848  
H209     H      0.902240000000     0.448710000000     0.917470000000     0.0585727  
H210     H      0.807250000000     0.467990000000     0.002710000000     0.0433682  
H211     H      0.920710000000     0.527030000000     0.993310000000     0.0539272  
H212     H      0.726360000000     0.544080000000     0.930010000000     0.04592    
H213     H      0.863270000000     0.498660000000     0.004000000000     0.0381782  
H214     H      0.623630000000     0.556130000000     0.007560000000     0.0375825  
H215     H      0.674540000000     0.504250000000     0.924530000000     0.043742   
H216     H      0.677370000000     0.556700000000     0.969400000000     0.0401106  
H217     H      0.791180000000     0.545750000000     0.919020000000     0.0528306  
H218     H      0.851950000000     0.451890000000     0.956660000000     0.0322901  
H219     H      0.630860000000     0.460850000000     0.979860000000     0.0432716  
H220     H      0.885970000000     0.545480000000     0.865170000000     0.177073   
H221     H      0.258140000000     0.507520000000     0.990840000000     0.0459052  
H222     H      0.378050000000     0.443990000000     0.012280000000     0.0352234  
H223     H      0.378560000000     0.551940000000     0.045770000000     0.0394334  
H224     H      0.159040000000     0.459300000000     0.036740000000     0.0557869  
H225     H      0.439720000000     0.458990000000     0.029180000000     0.0493704  
H226     H      0.220950000000     0.549900000000     0.062620000000     0.0356086  
H227     H      0.219620000000     0.437760000000     0.047220000000     0.0377623  
H228     H      0.160010000000     0.545480000000     0.093250000000     0.0358754  
H229     H      0.437400000000     0.560040000000     0.014350000000     0.0698818  
H230     H      0.323150000000     0.509440000000     0.981350000000     0.0426379  
H231     H      0.436700000000     0.453440000000     0.981430000000     0.0342971  
H232     H      0.275120000000     0.483010000000     0.102760000000     0.0428388  
H233     H      0.377410000000     0.477920000000     0.977950000000     0.0351175  
H234     H      0.158930000000     0.435380000000     0.078870000000     0.0492806  
H235     H      0.220430000000     0.521790000000     0.101980000000     0.0377788  
H236     H      0.219610000000     0.454360000000     0.092760000000     0.0373763  
H237     H      0.340170000000     0.483900000000     0.093050000000     0.0540462  
H238     H      0.378120000000     0.542780000000     0.998310000000     0.0355318  
H239     H      0.159990000000     0.532920000000     0.046410000000     0.0439848  
H240     H      0.481190000000     0.548460000000     0.096900000000     0.176743   
H241     H      0.935200000000     0.513660000000     0.798100000000     0.0600101  
H242     H      0.001780000000     0.460030000000     0.695250000000     0.0367468  
H243     H      0.996090000000     0.572460000000     0.688890000000     0.037468   
H244     H      0.965690000000     0.467310000000     0.901120000000     0.0500196  
H245     H      0.033640000000     0.472910000000     0.641190000000     0.050474   
H246     H      0.987380000000     0.568610000000     0.855280000000     0.0379671  
H247     H      0.994970000000     0.456500000000     0.844430000000     0.0416151  
H248     H      0.001720000000     0.563890000000     0.920850000000     0.0469441  
H249     H      0.983860000000     0.566510000000     0.621510000000     0.0634336  
H250     H      0.941220000000     0.515410000000     0.732370000000     0.0432524  
H251     H      0.990750000000     0.455840000000     0.628460000000     0.0402439  
H252     H      0.050080000000     0.519870000000     0.808740000000     0.0425747  
H253     H      0.961510000000     0.481600000000     0.679800000000     0.0370482  
H254     H      0.009710000000     0.450660000000     0.909610000000     0.0394355  
H255     H      0.029700000000     0.547150000000     0.864180000000     0.0383307  
H256     H      0.034150000000     0.481270000000     0.857820000000     0.037522   
H257     H      0.056040000000     0.521300000000     0.743100000000     0.0516342  
H258     H      0.958610000000     0.545490000000     0.675970000000     0.0326284  
H259     H      0.960280000000     0.543160000000     0.908410000000     0.0479908  
H260     H      0.091280000000     0.548200000000     0.644760000000     0.178045   
H261     H      0.005980000000     0.485600000000     0.213730000000     0.0435439  
H262     H      0.028340000000     0.433380000000     0.343980000000     0.0381864  
H263     H      0.027580000000     0.545800000000     0.334520000000     0.039878   
H264     H      0.112170000000     0.450750000000     0.137650000000     0.0423316  
H265     H      0.985340000000     0.451710000000     0.388050000000     0.0535862  
H266     H      0.076890000000     0.542330000000     0.190480000000     0.0364687  
H267     H      0.072080000000     0.429560000000     0.184600000000     0.0385847  
H268     H      0.078910000000     0.546690000000     0.123800000000     0.0417787  
H269     H      0.024340000000     0.550540000000     0.402370000000     0.0646848  
H270     H      0.984610000000     0.486980000000     0.276060000000     0.0519278  
H271     H      0.025090000000     0.438820000000     0.411440000000     0.0507862  
H272     H      0.115230000000     0.484880000000     0.251380000000     0.0459583  
H273     H      0.063620000000     0.459490000000     0.363950000000     0.0392444  
H274     H      0.072610000000     0.432240000000     0.117450000000     0.0487724  
H275     H      0.038080000000     0.522420000000     0.169640000000     0.0411741  
H276     H      0.035050000000     0.454600000000     0.166350000000     0.0406271  
H277     H      0.093820000000     0.486640000000     0.313770000000     0.0423663  
H278     H      0.062540000000     0.523840000000     0.359040000000     0.0333561  
H279     H      0.115690000000     0.521830000000     0.142180000000     0.0394139  
H280     H      0.923870000000     0.516850000000     0.371410000000     0.181295   
H281     H      0.991180000000     0.772640000000     0.431560000000     0.0425362  
H282     H      0.055360000000     0.654010000000     0.462900000000     0.0351035  
H283     H      0.954880000000     0.666670000000     0.514870000000     0.0441635  
H284     H      0.068690000000     0.871660000000     0.483710000000     0.0414129  
H285     H      0.021660000000     0.599350000000     0.453090000000     0.0536616  
H286     H      0.968970000000     0.823560000000     0.505850000000     0.0359209  
H287     H      0.071240000000     0.812570000000     0.456790000000     0.034742   
H288     H      0.966630000000     0.887820000000     0.483910000000     0.0379015  
H289     H      0.957380000000     0.602070000000     0.533740000000     0.0522797  
H290     H      0.984280000000     0.707690000000     0.433430000000     0.0519416  
H291     H      0.057590000000     0.590390000000     0.483550000000     0.0344001  
H292     H      0.040980000000     0.770390000000     0.536110000000     0.0462499  
H293     H      0.053200000000     0.648950000000     0.511110000000     0.0396548  
H294     H      0.066930000000     0.877050000000     0.435500000000     0.0358508  
H295     H      0.971850000000     0.828500000000     0.457660000000     0.0371411  
H296     H      0.033320000000     0.821800000000     0.428160000000     0.0365575  
H297     H      0.034170000000     0.705380000000     0.537910000000     0.0451895  
H298     H      0.993300000000     0.655130000000     0.541440000000     0.0383948  
H299     H      0.001810000000     0.878680000000     0.515960000000     0.0405058  
H300     H      0.900540000000     0.619320000000     0.455180000000     0.182362   
H301     H      0.006260000000     0.219390000000     0.510880000000     0.0444142  
H302     H      0.955850000000     0.346340000000     0.484280000000     0.0360333  
H303     H      0.040010000000     0.344530000000     0.561180000000     0.0438294  
H304     H      0.901780000000     0.150420000000     0.564210000000     0.0423849  
H305     H      0.997540000000     0.394270000000     0.469360000000     0.0498496  
H306     H      0.998200000000     0.196410000000     0.602070000000     0.0350365  
H307     H      0.918480000000     0.195710000000     0.520450000000     0.0390498  
H308     H      0.994800000000     0.128790000000     0.604610000000     0.0454415  
H309     H      0.040670000000     0.411950000000     0.560630000000     0.0499881  
H310     H      0.023270000000     0.280390000000     0.494210000000     0.0509723  
H311     H      0.956570000000     0.413190000000     0.485370000000     0.0344197  
H312     H      0.933260000000     0.260750000000     0.590350000000     0.0456607  
H313     H      0.946950000000     0.365290000000     0.527950000000     0.0365674  
H314     H      0.916950000000     0.127800000000     0.524180000000     0.0529702  
H315     H      0.008360000000     0.174530000000     0.560080000000     0.0407301  
H316     H      0.960710000000     0.174140000000     0.511230000000     0.0441516  
H317     H      0.950580000000     0.321620000000     0.574120000000     0.0419988  
H318     H      0.998520000000     0.365010000000     0.573950000000     0.0331223  
H319     H      0.954250000000     0.151190000000     0.618280000000     0.0397131  
H320     H      0.108830000000     0.368410000000     0.502650000000     0.178971   
H321     H      0.739480000000     0.945270000000     0.524830000000     0.0464376  
H322     H      0.824550000000     0.041720000000     0.573990000000     0.0362044  
H323     H      0.824130000000     0.031390000000     0.460350000000     0.0374933  
H324     H      0.628730000000     0.944010000000     0.561330000000     0.0514751  
H325     H      0.869360000000     0.082300000000     0.550300000000     0.0486981  
H326     H      0.673370000000     0.980740000000     0.465800000000     0.037239   
H327     H      0.675240000000     0.985730000000     0.579790000000     0.0373266  
H328     H      0.606620000000     0.977100000000     0.466140000000     0.0469647  
H329     H      0.891570000000     0.032200000000     0.460390000000     0.0706967  
H330     H      0.800840000000     0.968650000000     0.522610000000     0.042227   
H331     H      0.890940000000     0.047060000000     0.574430000000     0.0424739  
H332     H      0.698050000000     0.052190000000     0.518120000000     0.0429759  
H333     H      0.846430000000     0.003750000000     0.553990000000     0.0377707  
H334     H      0.608540000000     0.982340000000     0.581910000000     0.0477001  
H335     H      0.652840000000     0.018750000000     0.487150000000     0.0404066  
H336     H      0.654030000000     0.021760000000     0.555810000000     0.0395006  
H337     H      0.759420000000     0.075530000000     0.515490000000     0.0526578  
H338     H      0.845570000000     0.997550000000     0.486780000000     0.033303   
H339     H      0.627640000000     0.940890000000     0.489510000000     0.0471886  
H340     H      0.842250000000     0.129380000000     0.478020000000     0.177414   
H341     H      0.240200000000     0.960770000000     0.530440000000     0.0451542  
H342     H      0.333520000000     0.046420000000     0.581420000000     0.0362733  
H343     H      0.332530000000     0.041350000000     0.467420000000     0.0365998  
H344     H      0.129900000000     0.971200000000     0.566390000000     0.0377062  
H345     H      0.382210000000     0.083500000000     0.559950000000     0.0472002  
H346     H      0.180360000000     0.998610000000     0.469190000000     0.0362674  
H347     H      0.177890000000     0.011730000000     0.582430000000     0.0354668  
H348     H      0.113430000000     0.999420000000     0.466910000000     0.0432239  
H349     H      0.399620000000     0.035850000000     0.467450000000     0.0624226  
H350     H      0.303430000000     0.978550000000     0.529710000000     0.0419394  
H351     H      0.400200000000     0.045220000000     0.582040000000     0.0387408  
H352     H      0.208760000000     0.070730000000     0.520220000000     0.0427344  
H353     H      0.351800000000     0.007540000000     0.559640000000     0.0376252  
H354     H      0.111050000000     0.012450000000     0.581690000000     0.04107    
H355     H      0.161300000000     0.038850000000     0.487520000000     0.0401656  
H356     H      0.159700000000     0.046550000000     0.554440000000     0.0391981  
H357     H      0.272060000000     0.088580000000     0.519920000000     0.0523796  
H358     H      0.350580000000     0.004550000000     0.492330000000     0.0322439  
H359     H      0.131360000000     0.962650000000     0.491980000000     0.0379339  
H360     H      0.361420000000     0.136890000000     0.490920000000     0.175767   
H361     H      0.072480000000     0.760100000000     0.072620000000     0.0452288  
H362     H      0.072840000000     0.656600000000     0.981160000000     0.0347882  
H363     H      0.988480000000     0.652920000000     0.057520000000     0.0361072  
H364     H      0.077290000000     0.870090000000     0.032200000000     0.0409015  
H365     H      0.042050000000     0.600100000000     0.971770000000     0.0533901  
H366     H      0.992430000000     0.809140000000     0.074620000000     0.0349544  
H367     H      0.074680000000     0.816170000000     0.995860000000     0.0349241  
H368     H      0.979530000000     0.875260000000     0.065520000000     0.0447202  
H369     H      0.001750000000     0.587730000000     0.067090000000     0.0563159  
H370     H      0.070480000000     0.695250000000     0.065020000000     0.041509   
H371     H      0.084660000000     0.591670000000     0.991670000000     0.0345016  
H372     H      0.993720000000     0.772120000000     0.988740000000     0.0428793  
H373     H      0.083570000000     0.645380000000     0.027070000000     0.0346307  
H374     H      0.060380000000     0.882130000000     0.988360000000     0.0379966  
H375     H      0.979750000000     0.821100000000     0.029380000000     0.0381721  
H376     H      0.029290000000     0.825430000000     0.981980000000     0.0381406  
H377     H      0.991840000000     0.707250000000     0.980990000000     0.0512265  
H378     H      0.033190000000     0.642620000000     0.072150000000     0.031396   
H379     H      0.023300000000     0.865570000000     0.083730000000     0.0428171  
H380     H      0.957170000000     0.602900000000     0.965630000000     0.17598    
H381     H      0.068450000000     0.215550000000     0.988040000000     0.0443985  
H382     H      0.050740000000     0.345240000000     0.946380000000     0.0347829  
H383     H      0.032430000000     0.332080000000     0.058320000000     0.0441566  
H384     H      0.967190000000     0.143900000000     0.930070000000     0.0408859  
H385     H      0.081660000000     0.393370000000     0.977910000000     0.051238   
H386     H      0.997480000000     0.178680000000     0.033190000000     0.0372496  
H387     H      0.006500000000     0.194910000000     0.920440000000     0.034677   
H388     H      0.000660000000     0.111740000000     0.022570000000     0.0424651  
H389     H      0.026250000000     0.399030000000     0.064200000000     0.0509108  
H390     H      0.085840000000     0.277690000000     0.999000000000     0.0496064  
H391     H      0.044570000000     0.411350000000     0.953430000000     0.0325524  
H392     H      0.957810000000     0.247460000000     0.980130000000     0.0460992  
H393     H      0.007890000000     0.358970000000     0.964060000000     0.0372933  
H394     H      0.008800000000     0.127700000000     0.911720000000     0.0463643  
H395     H      0.037860000000     0.163810000000     0.011080000000     0.0426382  
H396     H      0.043220000000     0.173460000000     0.943450000000     0.0431748  
H397     H      0.975160000000     0.309530000000     0.990530000000     0.0427706  
H398     H      0.997460000000     0.351750000000     0.031900000000     0.0348208  
H399     H      0.961600000000     0.133030000000     0.003750000000     0.0407733  
H400     H      0.114470000000     0.363260000000     0.090490000000     0.177769   
H401     H      0.776610000000     0.044210000000     0.108700000000     0.0470431  
H402     H      0.649850000000     0.990380000000     0.126090000000     0.0375416  
H403     H      0.685740000000     0.994180000000     0.017970000000     0.0352829  
H404     H      0.866990000000     0.001400000000     0.171770000000     0.0395426  
H405     H      0.599830000000     0.971410000000     0.087910000000     0.0510801  
H406     H      0.836680000000     0.987670000000     0.063530000000     0.0365759  
H407     H      0.805110000000     0.980580000000     0.173120000000     0.0356781  
H408     H      0.898110000000     0.963150000000     0.080820000000     0.0465207  
H409     H      0.625870000000     0.018960000000     0.000050000000     0.0579767  
H410     H      0.713640000000     0.046370000000     0.089770000000     0.0448739  
H411     H      0.590320000000     0.014280000000     0.106770000000     0.0423283  
H412     H      0.774650000000     0.929680000000     0.101770000000     0.0421668  
H413     H      0.652140000000     0.033190000000     0.104200000000     0.0415563  
H414     H      0.867080000000     0.956250000000     0.188390000000     0.0325141  
H415     H      0.835670000000     0.944140000000     0.084020000000     0.0380749  
H416     H      0.816680000000     0.939860000000     0.150130000000     0.037044   
H417     H      0.711660000000     0.931840000000     0.082930000000     0.0517711  
H418     H      0.673220000000     0.035200000000     0.039480000000     0.0332804  
H419     H      0.887640000000     0.005990000000     0.100120000000     0.0452283  
H420     H      0.623560000000     0.912070000000     0.029260000000     0.175461   
H421     H      0.239130000000     0.009100000000     0.029100000000     0.0431512  
H422     H      0.363470000000     0.957850000000     0.993390000000     0.0345974  
H423     H      0.359930000000     0.070660000000     0.995850000000     0.0345395  
H424     H      0.152470000000     0.980150000000     0.927180000000     0.0401173  
H425     H      0.414240000000     0.976830000000     0.029950000000     0.0526766  
H426     H      0.205050000000     0.070210000000     0.969060000000     0.036918   
H427     H      0.204960000000     0.957500000000     0.958850000000     0.0346533  
H428     H      0.137270000000     0.068440000000     0.977690000000     0.0532734  
H429     H      0.427190000000     0.071630000000     0.990620000000     0.0559011  
H430     H      0.303340000000     0.009360000000     0.043190000000     0.0537252  
H431     H      0.430330000000     0.960470000000     0.987720000000     0.0379672  
H432     H      0.263700000000     0.016920000000     0.916120000000     0.044925   
H433     H      0.379140000000     0.982480000000     0.954860000000     0.0327831  
H434     H      0.137140000000     0.957830000000     0.967310000000     0.0392659  
H435     H      0.190210000000     0.044280000000     0.007100000000     0.0391245  
H436     H      0.190150000000     0.976350000000     0.000920000000     0.0381457  
H437     H      0.328020000000     0.016730000000     0.930250000000     0.0408885  
H438     H      0.377910000000     0.048730000000     0.956840000000     0.0298976  
H439     H      0.152480000000     0.053810000000     0.934030000000     0.0465707  
H440     H      0.422530000000     0.091280000000     0.082180000000     0.198023   
H441     H      0.014730000000     0.984360000000     0.736170000000     0.0459837  
H442     H      0.971790000000     0.035370000000     0.857180000000     0.036429   
H443     H      0.083200000000     0.048850000000     0.836850000000     0.0416366  
H444     H      0.954720000000     0.013790000000     0.638820000000     0.0390223  
H445     H      0.997370000000     0.061070000000     0.911320000000     0.0484192  
H446     H      0.054560000000     0.047840000000     0.679670000000     0.0347682  
H447     H      0.943120000000     0.035130000000     0.699600000000     0.035522   
H448     H      0.039880000000     0.067400000000     0.615700000000     0.0352876  
H449     H      0.095620000000     0.028390000000     0.901400000000     0.0571707  
H450     H      0.026490000000     0.986040000000     0.801070000000     0.0423699  
H451     H      0.986750000000     0.015260000000     0.920950000000     0.0246294  
H452     H      0.000050000000     0.098180000000     0.735870000000     0.0413835  
H453     H      0.000640000000     0.996910000000     0.859820000000     0.0370672  
H454     H      0.930490000000     0.055240000000     0.635230000000     0.0368032  
H455     H      0.026280000000     0.086740000000     0.676840000000     0.0355462  
H456     H      0.959390000000     0.079110000000     0.688870000000     0.0368918  
H457     H      0.011720000000     0.099850000000     0.800820000000     0.0508542  
H458     H      0.066970000000     0.005370000000     0.848420000000     0.0316399  
H459     H      0.027870000000     0.021940000000     0.625930000000     0.0338106  
H460     H      0.073080000000     0.130830000000     0.880930000000     0.174291   
H461     H      0.029330000000     0.928680000000     0.246580000000     0.0455123  
H462     H      0.949510000000     0.922360000000     0.359910000000     0.0360057  
H463     H      0.993830000000     0.024430000000     0.338100000000     0.0380073  
H464     H      0.988180000000     0.884890000000     0.145760000000     0.0377569  
H465     H      0.932600000000     0.960770000000     0.409790000000     0.0531141  
H466     H      0.996570000000     0.990850000000     0.181970000000     0.0367384  
H467     H      0.957690000000     0.886690000000     0.203630000000     0.0346054  
H468     H      0.978540000000     0.982930000000     0.116310000000     0.0201172  
H469     H      0.012490000000     0.027880000000     0.404770000000     0.0500057  
H470     H      0.025790000000     0.943190000000     0.310810000000     0.0419687  
H471     H      0.965900000000     0.930040000000     0.425930000000     0.0433529  
H472     H      0.922050000000     0.968490000000     0.231480000000     0.0415446  
H473     H      0.996660000000     0.929280000000     0.368110000000     0.0377134  
H474     H      0.940720000000     0.880570000000     0.137440000000     0.0359356  
H475     H      0.949540000000     0.982390000000     0.174860000000     0.043477   
H476     H      0.926090000000     0.919510000000     0.187930000000     0.0407978  
H477     H      0.918650000000     0.983350000000     0.295670000000     0.0521329  
H478     H      0.022960000000     0.990060000000     0.354650000000     0.0314563  
H479     H      0.013540000000     0.953300000000     0.131400000000     0.0311339  
H480     H      0.903270000000     0.041930000000     0.386720000000     0.185919   
N1       N      0.512580000000     0.531080000000     0.883350000000    -0.167661   
N2       N      0.496970000000     0.539750000000     0.809720000000    -0.107483   
N3       N      0.462550000000     0.519820000000     0.661450000000    -0.11281    
N4       N      0.467190000000     0.509690000000     0.586660000000    -0.181543   
N5       N      0.546850000000     0.483400000000     0.084010000000    -0.169123   
N6       N      0.550190000000     0.476920000000     0.159440000000    -0.107742   
N7       N      0.529100000000     0.490120000000     0.310600000000    -0.111471   
N8       N      0.523930000000     0.492840000000     0.385630000000    -0.178912   
N9       N      0.545280000000     0.881120000000     0.448700000000    -0.0871631  
N10      N      0.536910000000     0.809730000000     0.466360000000    -0.11388    
N11      N      0.502770000000     0.661780000000     0.459850000000    -0.115656   
N12      N      0.504990000000     0.589430000000     0.482270000000    -0.230674   
N13      N      0.494060000000     0.415040000000     0.495210000000    -0.221221   
N14      N      0.494740000000     0.339690000000     0.497780000000    -0.114716   
N15      N      0.463050000000     0.199960000000     0.548630000000    -0.11477    
N16      N      0.469100000000     0.128570000000     0.566830000000    -0.099262   
N17      N      0.528820000000     0.611950000000     0.997860000000    -0.16587    
N18      N      0.523230000000     0.686680000000     0.999810000000    -0.11036    
N19      N      0.515600000000     0.837370000000     0.023430000000    -0.111895   
N20      N      0.518100000000     0.912300000000     0.022520000000    -0.17964    
N21      N      0.518920000000     0.119520000000     0.030100000000    -0.167083   
N22      N      0.520890000000     0.194160000000     0.021320000000    -0.107808   
N23      N      0.529700000000     0.334290000000     0.963510000000    -0.113175   
N24      N      0.531180000000     0.408960000000     0.957970000000    -0.18216    
N25      N      0.503540000000     0.009140000000     0.615760000000    -0.216667   
N26      N      0.493530000000     0.981570000000     0.686600000000    -0.110527   
N27      N      0.486620000000     0.971380000000     0.839570000000    -0.114083   
N28      N      0.473500000000     0.946510000000     0.908690000000    -0.10159    
N29      N      0.421850000000     0.073550000000     0.154150000000    -0.0862498  
N30      N      0.452250000000     0.055600000000     0.219830000000    -0.113424   
N31      N      0.472170000000     0.032650000000     0.370040000000    -0.115365   
N32      N      0.506420000000     0.018600000000     0.437370000000    -0.223648   
N33      N      0.598850000000     0.501690000000     0.519030000000    -0.16983    
N34      N      0.674020000000     0.502360000000     0.527880000000    -0.107769   
N35      N      0.824120000000     0.503600000000     0.500300000000    -0.112531   
N36      N      0.899380000000     0.504240000000     0.504920000000    -0.180798   
N37      N      0.398770000000     0.504070000000     0.457690000000    -0.170465   
N38      N      0.323240000000     0.505300000000     0.462310000000    -0.107519   
N39      N      0.182290000000     0.505490000000     0.521140000000    -0.113232   
N40      N      0.107220000000     0.504130000000     0.528560000000    -0.17946    
N41      N      0.914410000000     0.492150000000     0.949980000000    -0.0889968  
N42      N      0.841680000000     0.507600000000     0.951390000000    -0.110264   
N43      N      0.691670000000     0.502360000000     0.979450000000    -0.11388    
N44      N      0.617070000000     0.514780000000     0.969580000000    -0.224431   
N45      N      0.442960000000     0.506710000000     0.998350000000    -0.217765   
N46      N      0.374950000000     0.496980000000     0.032150000000    -0.111172   
N47      N      0.223370000000     0.494230000000     0.051680000000    -0.114643   
N48      N      0.156000000000     0.490830000000     0.083030000000    -0.099747   
N49      N      0.998910000000     0.511770000000     0.619250000000    -0.167671   
N50      N      0.004260000000     0.516620000000     0.694550000000    -0.109346   
N51      N      0.987550000000     0.512630000000     0.846640000000    -0.107321   
N52      N      0.001270000000     0.506420000000     0.921010000000    -0.178527   
N53      N      0.013900000000     0.495100000000     0.410480000000    -0.164973   
N54      N      0.023680000000     0.489190000000     0.335590000000    -0.111131   
N55      N      0.076050000000     0.485650000000     0.191720000000    -0.113039   
N56      N      0.077240000000     0.489580000000     0.116070000000    -0.177804   
N57      N      0.006320000000     0.591440000000     0.507820000000    -0.218014   
N58      N      0.003950000000     0.663630000000     0.485630000000    -0.114307   
N59      N      0.020980000000     0.814510000000     0.483930000000    -0.114497   
N60      N      0.018540000000     0.885350000000     0.462680000000    -0.100271   
N61      N      0.999660000000     0.416440000000     0.522180000000    -0.222247   
N62      N      0.998570000000     0.340990000000     0.521830000000    -0.114469   
N63      N      0.957240000000     0.200290000000     0.562310000000    -0.114812   
N64      N      0.952430000000     0.126770000000     0.567720000000    -0.0919095  
N65      N      0.895850000000     0.045310000000     0.516500000000    -0.154841   
N66      N      0.820290000000     0.038840000000     0.517020000000    -0.107863   
N67      N      0.678580000000     0.981940000000     0.522790000000    -0.112736   
N68      N      0.603070000000     0.978160000000     0.524210000000    -0.174273   
N69      N      0.405050000000     0.046070000000     0.524090000000    -0.170817   
N70      N      0.329260000000     0.046670000000     0.524370000000    -0.107941   
N71      N      0.183020000000     0.002610000000     0.526210000000    -0.11351    
N72      N      0.107430000000     0.002110000000     0.524610000000    -0.167479   
N73      N      0.040890000000     0.584270000000     0.026880000000    -0.218263   
N74      N      0.028620000000     0.658440000000     0.017170000000    -0.111972   
N75      N      0.035340000000     0.808880000000     0.036770000000    -0.114611   
N76      N      0.022410000000     0.881300000000     0.029770000000    -0.0977936  
N77      N      0.036770000000     0.409210000000     0.009670000000    -0.220286   
N78      N      0.043250000000     0.334420000000     0.002060000000    -0.114851   
N79      N      0.000180000000     0.190830000000     0.977260000000    -0.114304   
N80      N      0.000800000000     0.117770000000     0.966570000000    -0.0904555  
N81      N      0.602530000000     0.014980000000     0.051340000000    -0.21639    
N82      N      0.671130000000     0.989150000000     0.073090000000    -0.110128   
N83      N      0.817460000000     0.986880000000     0.117520000000    -0.114368   
N84      N      0.885480000000     0.962850000000     0.135650000000    -0.10091    
N85      N      0.434040000000     0.016260000000     0.993870000000    -0.217094   
N86      N      0.357780000000     0.014000000000     0.997590000000    -0.112165   
N87      N      0.209110000000     0.014000000000     0.962060000000    -0.114756   
N88      N      0.134930000000     0.013500000000     0.968660000000    -0.0941977  
N89      N      0.041340000000     0.026550000000     0.914570000000    -0.100784   
N90      N      0.026450000000     0.045360000000     0.843920000000    -0.111301   
N91      N      0.999760000000     0.038780000000     0.693100000000    -0.1146     
N92      N      0.985050000000     0.057760000000     0.622550000000    -0.116886   
N93      N      0.983760000000     0.982310000000     0.418200000000    -0.102218   
N94      N      0.968810000000     0.973840000000     0.345500000000    -0.109494   
N95      N      0.979420000000     0.938700000000     0.196640000000    -0.113772   
N96      N      0.963120000000     0.929960000000     0.124310000000    -0.0992482  
O1       O      0.053880000000     0.964360000000     0.046930000000    -0.369641   
O2       O      0.968140000000     0.030300000000     0.054210000000    -0.374906   
O3       O      0.977580000000     0.955520000000     0.042460000000    -0.368119   
O4       O      0.044430000000     0.039160000000     0.058600000000    -0.373287   
O5       O      0.046770000000     0.048530000000     0.999070000000    -0.353916   
O6       O      0.979970000000     0.964880000000     0.982940000000    -0.374343   
O7       O      0.970450000000     0.039660000000     0.994670000000    -0.371819   
O8       O      0.056220000000     0.973760000000     0.987390000000    -0.366566   
O9       O      0.055140000000     0.008640000000     0.492740000000    -0.39675    
O10      O      0.948790000000     0.030570000000     0.488720000000    -0.38084    
O11      O      0.013160000000     0.071610000000     0.481610000000    -0.362786   
O12      O      0.990710000000     0.967460000000     0.499440000000    -0.369288   
O13      O      0.990350000000     0.977340000000     0.558880000000    -0.375244   
O14      O      0.013190000000     0.081370000000     0.541060000000    -0.369699   
O15      O      0.948610000000     0.040230000000     0.547800000000    -0.389563   
O16      O      0.054740000000     0.018110000000     0.551870000000    -0.401194   
O17      O      0.057590000000     0.464200000000     0.063770000000    -0.471896   
O18      O      0.020920000000     0.473370000000     0.968610000000    -0.483896   
O19      O      0.087010000000     0.466660000000     0.997510000000    -0.446296   
O20      O      0.991620000000     0.464280000000     0.034650000000    -0.456984   
O21      O      0.992180000000     0.522990000000     0.040570000000    -0.447725   
O22      O      0.086830000000     0.525600000000     0.001770000000    -0.456507   
O23      O      0.019750000000     0.531780000000     0.973730000000    -0.477607   
O24      O      0.058510000000     0.522740000000     0.068200000000    -0.480222   
O25      O      0.000360000000     0.478650000000     0.567750000000    -0.484442   
O26      O      0.009610000000     0.469930000000     0.466240000000    -0.476489   
O27      O      0.054380000000     0.473830000000     0.522480000000    -0.471685   
O28      O      0.952720000000     0.475400000000     0.512130000000    -0.491542   
O29      O      0.952630000000     0.533840000000     0.509240000000    -0.480404   
O30      O      0.053960000000     0.532390000000     0.519280000000    -0.485798   
O31      O      0.008330000000     0.528430000000     0.461630000000    -0.473782   
O32      O      0.998930000000     0.537260000000     0.563400000000    -0.473995   
O33      O      0.472770000000     0.010190000000     0.061260000000    -0.44733    
O34      O      0.504590000000     0.021050000000     0.964340000000    -0.45495    
O35      O      0.493810000000     0.965880000000     0.007270000000    -0.480245   
O36      O      0.491120000000     0.066580000000     0.017920000000    -0.470948   
O37      O      0.547380000000     0.066010000000     0.036050000000    -0.476123   
O38      O      0.544890000000     0.964900000000     0.036980000000    -0.478056   
O39      O      0.560440000000     0.016410000000     0.984130000000    -0.449768   
O40      O      0.528400000000     0.016030000000     0.081530000000    -0.451385   
O41      O      0.522880000000     0.061870000000     0.501690000000    -0.459951   
O42      O      0.488130000000     0.966530000000     0.495360000000    -0.4539     
O43      O      0.456620000000     0.030160000000     0.495340000000    -0.485726   
O44      O      0.552650000000     0.996180000000     0.494610000000    -0.47715    
O45      O      0.552240000000     0.995420000000     0.553870000000    -0.469562   
O46      O      0.455890000000     0.029790000000     0.554540000000    -0.476069   
O47      O      0.485130000000     0.964490000000     0.554930000000    -0.44711    
O48      O      0.520580000000     0.059570000000     0.561220000000    -0.452714   
O49      O      0.492630000000     0.523600000000     0.940960000000    -0.473816   
O50      O      0.509660000000     0.489910000000     0.035850000000    -0.479083   
O51      O      0.503540000000     0.556860000000     0.004290000000    -0.467291   
O52      O      0.501470000000     0.460480000000     0.971510000000    -0.479762   
O53      O      0.560430000000     0.460470000000     0.971810000000    -0.485104   
O54      O      0.557660000000     0.561030000000     0.981420000000    -0.482874   
O55      O      0.566360000000     0.505040000000     0.029970000000    -0.4795     
O56      O      0.549980000000     0.515210000000     0.929190000000    -0.466653   
O57      O      0.451370000000     0.533350000000     0.468870000000    -0.482254   
O58      O      0.547900000000     0.530970000000     0.502370000000    -0.487714   
O59      O      0.514970000000     0.526120000000     0.436230000000    -0.484493   
O60      O      0.481600000000     0.535090000000     0.532750000000    -0.481103   
O61      O      0.485820000000     0.476870000000     0.538640000000    -0.48636    
O62      O      0.510080000000     0.467670000000     0.439730000000    -0.47464    
O63      O      0.547810000000     0.472440000000     0.502230000000    -0.473907   
O64      O      0.449310000000     0.475140000000     0.476090000000    -0.484748   
O65      O      0.550680000000     0.588510000000     0.839110000000    -0.337292   
O66      O      0.594790000000     0.558250000000     0.865390000000    -0.248053   
O67      O      0.603380000000     0.435030000000     0.121740000000    -0.338637   
O68      O      0.632230000000     0.466110000000     0.079830000000    -0.253877   
O69      O      0.516590000000     0.861220000000     0.540920000000    -0.348117   
O70      O      0.557250000000     0.898230000000     0.518240000000    -0.235747   
O71      O      0.560140000000     0.410680000000     0.460150000000    -0.339224   
O72      O      0.580660000000     0.372720000000     0.501080000000    -0.250191   
O73      O      0.469580000000     0.631460000000     0.956810000000    -0.336119   
O74      O      0.436000000000     0.632270000000     0.006280000000    -0.257876   
O75      O      0.527560000000     0.167450000000     0.095660000000    -0.33558    
O76      O      0.574020000000     0.130450000000     0.099440000000    -0.244158   
O77      O      0.497090000000     0.927670000000     0.629640000000    -0.33494    
O78      O      0.548480000000     0.933260000000     0.599890000000    -0.241657   
O79      O      0.486380000000     0.088870000000     0.120960000000    -0.341021   
O80      O      0.507540000000     0.108460000000     0.173230000000    -0.246165   
O81      O      0.634850000000     0.477190000000     0.590950000000    -0.338444   
O82      O      0.592250000000     0.438010000000     0.577190000000    -0.248836   
O83      O      0.347290000000     0.474780000000     0.394990000000    -0.338612   
O84      O      0.397510000000     0.443110000000     0.399390000000    -0.251895   
O85      O      0.884630000000     0.531660000000     0.887080000000    -0.341004   
O86      O      0.904790000000     0.482520000000     0.860470000000    -0.259151   
O87      O      0.470490000000     0.551080000000     0.073360000000    -0.339117   
O88      O      0.434970000000     0.504130000000     0.080760000000    -0.250073   
O89      O      0.066680000000     0.540170000000     0.645850000000    -0.337741   
O90      O      0.045590000000     0.590460000000     0.622210000000    -0.252218   
O91      O      0.948580000000     0.511290000000     0.376930000000    -0.336079   
O92      O      0.965400000000     0.568090000000     0.374610000000    -0.241777   
O93      O      0.916690000000     0.622800000000     0.475220000000    -0.348269   
O94      O      0.956730000000     0.584720000000     0.453460000000    -0.234102   
O95      O      0.088610000000     0.371060000000     0.518710000000    -0.348849   
O96      O      0.061530000000     0.409940000000     0.482790000000    -0.248496   
O97      O      0.845410000000     0.104720000000     0.484830000000    -0.338786   
O98      O      0.891720000000     0.097260000000     0.447900000000    -0.236691   
O99      O      0.362320000000     0.111830000000     0.496850000000    -0.340577   
O100     O      0.403650000000     0.100400000000     0.455270000000    -0.256958   
O101     O      0.977570000000     0.605550000000     0.981460000000    -0.339905   
O102     O      0.947800000000     0.584680000000     0.028700000000    -0.252885   
O103     O      0.090120000000     0.364220000000     0.081620000000    -0.349752   
O104     O      0.103390000000     0.405020000000     0.040480000000    -0.25153    
O105     O      0.628060000000     0.936550000000     0.035940000000    -0.338113   
O106     O      0.608250000000     0.957380000000     0.983620000000    -0.248041   
O107     O      0.424180000000     0.085850000000     0.056830000000    -0.34483    
O108     O      0.397370000000     0.033360000000     0.063180000000    -0.241463   
O109     O      0.070790000000     0.105670000000     0.875830000000    -0.343976   
O110     O      0.079740000000     0.090340000000     0.932910000000    -0.243561   
O111     O      0.924200000000     0.026830000000     0.385040000000    -0.338369   
O112     O      0.959320000000     0.066490000000     0.412190000000    -0.23237    


