data_structure

_audit_creation_method RASPA-1.0
_audit_creation_date 2023-5-25
_audit_author_name 'Poobodin Mano'

_cell_length_a    38.5203
_cell_length_b    38.4477
_cell_length_c    38.4867
_cell_angle_alpha 90
_cell_angle_beta  90
_cell_angle_gamma 90
_cell_volume      56999.5

_symmetry_cell_setting          triclinic
_symmetry_space_group_name_Hall 'P 1'
_symmetry_space_group_name_H-M  'P 1'
_symmetry_Int_Tables_number     1

_symmetry_equiv_pos_as_xyz 'x,y,z'

loop_
_atom_site_label
_atom_site_type_symbol
_atom_site_fract_x
_atom_site_fract_y
_atom_site_fract_z
_atom_site_charge
C1       C      0.980150000000     0.067490000000     0.497090000000     0.401433   
C2       C      0.000080000000     0.930340000000     0.500450000000     0.399257   
C3       C      0.058660000000     0.008140000000     0.501200000000     0.399865   
C4       C      0.921560000000     0.991150000000     0.496150000000     0.401677   
C5       C      0.989150000000     0.430490000000     0.484050000000     0.398563   
C6       C      0.997830000000     0.566890000000     0.507320000000     0.401214   
C7       C      0.998640000000     0.510590000000     0.427580000000     0.399421   
C8       C      0.988520000000     0.486650000000     0.563570000000     0.401153   
C9       C      0.558600000000     0.982370000000     0.473990000000     0.399663   
C10      C      0.421240000000     0.986890000000     0.489350000000     0.400975   
C11      C      0.480570000000     0.976300000000     0.414120000000     0.400264   
C12      C      0.499060000000     0.992990000000     0.550200000000     0.401886   
C13      C      0.489320000000     0.059070000000     0.991010000000     0.402492   
C14      C      0.487970000000     0.921700000000     0.974020000000     0.402871   
C15      C      0.485510000000     0.983080000000     0.051220000000     0.402122   
C16      C      0.491940000000     0.997560000000     0.913790000000     0.399653   
C17      C      0.992270000000     0.496060000000     0.064900000000     0.400717   
C18      C      0.998240000000     0.491720000000     0.926610000000     0.398632   
C19      C      0.064110000000     0.501580000000     0.998540000000     0.398469   
C20      C      0.926730000000     0.486130000000     0.994190000000     0.400725   
C21      C      0.485690000000     0.423190000000     0.002090000000     0.398833   
C22      C      0.505920000000     0.559980000000     0.994390000000     0.40051    
C23      C      0.427080000000     0.503080000000     0.998830000000     0.401064   
C24      C      0.563540000000     0.480320000000     0.997580000000     0.399099   
C25      C      0.838710000000     0.444130000000     0.998670000000    -0.0314761  
C26      C      0.655410000000     0.484560000000     0.969770000000    -0.0304115  
C27      C      0.615270000000     0.458730000000     0.028600000000    -0.00733445 
C28      C      0.617760000000     0.473040000000     0.964240000000    -0.00640549 
C29      C      0.728900000000     0.445640000000     0.978780000000    -0.0539484  
C30      C      0.760930000000     0.495710000000     0.020370000000    -0.0537297  
C31      C      0.708340000000     0.467830000000     0.999100000000     0.0609268  
C32      C      0.653180000000     0.470140000000     0.031110000000    -0.0299629  
C33      C      0.781540000000     0.472960000000     0.000750000000     0.0608937  
C34      C      0.832330000000     0.503700000000     0.979750000000    -0.0443618  
C35      C      0.765090000000     0.448530000000     0.978960000000    -0.0558075  
C36      C      0.869070000000     0.513530000000     0.991370000000     0.0423206  
C37      C      0.876490000000     0.449790000000     0.009710000000    -0.00591398 
C38      C      0.724760000000     0.493810000000     0.019050000000    -0.0558259  
C39      C      0.338340000000     0.516760000000     0.034130000000    -0.0314176  
C40      C      0.158520000000     0.483030000000     0.987600000000    -0.0302419  
C41      C      0.114040000000     0.538400000000     0.014190000000    -0.00744152 
C42      C      0.121620000000     0.474070000000     0.999000000000    -0.00632231 
C43      C      0.229720000000     0.492990000000     0.027960000000    -0.053893   
C44      C      0.261790000000     0.539350000000     0.982300000000    -0.0538993  
C45      C      0.209110000000     0.514580000000     0.007050000000     0.0609942  
C46      C      0.152010000000     0.543480000000     0.003440000000    -0.0299513  
C47      C      0.282370000000     0.518200000000     0.003690000000     0.0606903  
C48      C      0.334000000000     0.497730000000     0.974220000000    -0.0446551  
C49      C      0.265890000000     0.494120000000     0.025840000000    -0.0558891  
C50      C      0.371860000000     0.507700000000     0.966610000000     0.0422644  
C51      C      0.376400000000     0.527140000000     0.029800000000    -0.0056326  
C52      C      0.225570000000     0.537170000000     0.983360000000    -0.0559658  
C53      C      0.464740000000     0.829760000000     0.987890000000    -0.0317894  
C54      C      0.509820000000     0.646970000000     0.954360000000    -0.030104   
C55      C      0.508660000000     0.616910000000     0.023890000000    -0.00624574 
C56      C      0.525380000000     0.610930000000     0.960440000000    -0.00694857 
C57      C      0.523310000000     0.728610000000     0.002280000000    -0.0536814  
C58      C      0.475650000000     0.752770000000     0.953200000000    -0.0540145  
C59      C      0.505150000000     0.704590000000     0.981790000000     0.0608979  
C60      C      0.492990000000     0.652390000000     0.014980000000    -0.0302837  
C61      C      0.495020000000     0.776750000000     0.972580000000     0.0609531  
C62      C      0.523660000000     0.833050000000     0.965430000000    -0.0440641  
C63      C      0.517820000000     0.764290000000     0.998380000000    -0.0561399  
C64      C      0.517900000000     0.869800000000     0.951320000000     0.041136   
C65      C      0.455930000000     0.866070000000     0.973970000000    -0.00466746 
C66      C      0.480040000000     0.717020000000     0.958160000000    -0.0557512  
C67      C      0.463470000000     0.152040000000     0.984250000000    -0.0315175  
C68      C      0.484630000000     0.332370000000     0.038810000000    -0.0298748  
C69      C      0.479590000000     0.367510000000     0.971630000000    -0.00620155 
C70      C      0.495250000000     0.370600000000     0.036590000000    -0.00703216 
C71      C      0.512150000000     0.258770000000     0.984800000000    -0.053934   
C72      C      0.466600000000     0.222860000000     0.028340000000    -0.0538036  
C73      C      0.489640000000     0.277550000000     0.006410000000     0.0612662  
C74      C      0.468690000000     0.329880000000     0.978300000000    -0.0300722  
C75      C      0.489740000000     0.204090000000     0.007380000000     0.0609761  
C76      C      0.522720000000     0.149360000000     0.004980000000    -0.0438943  
C77      C      0.511800000000     0.222440000000     0.984650000000    -0.0558452  
C78      C      0.519720000000     0.110600000000     0.014050000000     0.0409107  
C79      C      0.456690000000     0.113970000000     0.993370000000    -0.00489856 
C80      C      0.465940000000     0.259180000000     0.027430000000    -0.0560625  
C81      C      0.506900000000     0.967750000000     0.642300000000    -0.0313239  
C82      C      0.468620000000     0.017460000000     0.821440000000    -0.0301748  
C83      C      0.526100000000     0.987700000000     0.860970000000    -0.00757173 
C84      C      0.461520000000     0.003450000000     0.857970000000    -0.00587115 
C85      C      0.475640000000     0.981170000000     0.747270000000    -0.0537688  
C86      C      0.524480000000     0.024520000000     0.715660000000    -0.0539321  
C87      C      0.497940000000     0.001070000000     0.768090000000     0.0611767  
C88      C      0.529230000000     0.001530000000     0.823910000000    -0.029308   
C89      C      0.503500000000     0.003140000000     0.694980000000     0.061025   
C90      C      0.487810000000     0.027920000000     0.639100000000    -0.0446671  
C91      C      0.477740000000     0.982720000000     0.711080000000    -0.0560768  
C92      C      0.500930000000     0.031600000000     0.601520000000     0.0423979  
C93      C      0.520800000000     0.968520000000     0.605220000000    -0.00535473 
C94      C      0.521360000000     0.024130000000     0.751850000000    -0.055758   
C95      C      0.508090000000     0.958570000000     0.142460000000    -0.0314622  
C96      C      0.469450000000     0.002330000000     0.322880000000    -0.0298942  
C97      C      0.478340000000     0.938240000000     0.362410000000    -0.00630902 
C98      C      0.456090000000     0.000190000000     0.360080000000    -0.00670784 
C99      C      0.452880000000     0.949000000000     0.247870000000    -0.0542774  
C100     C      0.503390000000     0.992090000000     0.218590000000    -0.0536035  
C101     C      0.474630000000     0.968450000000     0.269630000000     0.0613854  
C102     C      0.491140000000     0.942910000000     0.324930000000    -0.0304218  
C103     C      0.480310000000     0.974270000000     0.196780000000     0.0606852  
C104     C      0.448850000000     0.979310000000     0.141320000000    -0.0437794  
C105     C      0.456040000000     0.951260000000     0.211750000000    -0.0554666  
C106     C      0.452860000000     0.994820000000     0.104860000000     0.0406564  
C107     C      0.516010000000     0.973730000000     0.106560000000    -0.00494743 
C108     C      0.501180000000     0.988690000000     0.254640000000    -0.0563992  
C109     C      0.961110000000     0.497720000000     0.654690000000    -0.0310833  
C110     C      0.000950000000     0.454990000000     0.837110000000    -0.0298737  
C111     C      0.994480000000     0.522710000000     0.870680000000    -0.00659132 
C112     C      0.015570000000     0.459990000000     0.873710000000    -0.00737661 
C113     C      0.014430000000     0.506740000000     0.758430000000    -0.0534138  
C114     C      0.967990000000     0.458210000000     0.730910000000    -0.0537414  
C115     C      0.995800000000     0.485080000000     0.781030000000     0.0606703  
C116     C      0.980040000000     0.514380000000     0.834560000000    -0.0302784  
C117     C      0.987890000000     0.478710000000     0.708340000000     0.0613698  
C118     C      0.018680000000     0.471810000000     0.653340000000    -0.0423368  
C119     C      0.010090000000     0.504170000000     0.722490000000    -0.056087   
C120     C      0.014060000000     0.459630000000     0.615750000000     0.0413757  
C121     C      0.953500000000     0.485950000000     0.617370000000    -0.00433316 
C122     C      0.971310000000     0.461740000000     0.766930000000    -0.0556489  
C123     C      0.986070000000     0.533370000000     0.153860000000    -0.0313175  
C124     C      0.027110000000     0.498030000000     0.337220000000    -0.0303723  
C125     C      0.973050000000     0.535850000000     0.374430000000    -0.00721709 
C126     C      0.034140000000     0.511590000000     0.374030000000    -0.0065731  
C127     C      0.019690000000     0.533850000000     0.259750000000    -0.0540145  
C128     C      0.974190000000     0.483740000000     0.233500000000    -0.0537028  
C129     C      0.999740000000     0.513970000000     0.282830000000     0.0608875  
C130     C      0.968540000000     0.521750000000     0.337620000000    -0.0300906  
C131     C      0.992820000000     0.504820000000     0.210380000000     0.0605465  
C132     C      0.010800000000     0.475500000000     0.157540000000    -0.0442585  
C133     C      0.016860000000     0.528950000000     0.223870000000    -0.05574    
C134     C      0.997530000000     0.465700000000     0.121180000000     0.0419398  
C135     C      0.972060000000     0.526890000000     0.117290000000    -0.00584078 
C136     C      0.978030000000     0.487710000000     0.269390000000    -0.0561453  
C137     C      0.331700000000     0.023730000000     0.489410000000    -0.0311048  
C138     C      0.148650000000     0.993720000000     0.529880000000    -0.0306024  
C139     C      0.112630000000     0.026910000000     0.472010000000    -0.00731073 
C140     C      0.112720000000     0.009770000000     0.535640000000    -0.00622096 
C141     C      0.226470000000     0.024330000000     0.521990000000    -0.0541034  
C142     C      0.252830000000     0.973560000000     0.477290000000    -0.0537223  
C143     C      0.203530000000     0.005010000000     0.501330000000     0.0612199  
C144     C      0.148800000000     0.010850000000     0.469090000000    -0.0298376  
C145     C      0.275840000000     0.994340000000     0.496370000000     0.0606939  
C146     C      0.329500000000     0.965590000000     0.513470000000    -0.0442775  
C147     C      0.262250000000     0.018650000000     0.520160000000    -0.0557739  
C148     C      0.365630000000     0.956370000000     0.499100000000     0.0418555  
C149     C      0.367780000000     0.018060000000     0.474190000000    -0.00557169 
C150     C      0.216970000000     0.978260000000     0.480190000000    -0.0561541  
C151     C      0.828760000000     0.972300000000     0.518330000000    -0.0316402  
C152     C      0.648810000000     0.014870000000     0.468230000000    -0.0300109  
C153     C      0.613020000000     0.948660000000     0.477100000000    -0.00646597 
C154     C      0.612530000000     0.010050000000     0.452810000000    -0.00717267 
C155     C      0.726300000000     0.960060000000     0.461010000000    -0.0539602  
C156     C      0.753400000000     0.010680000000     0.505430000000    -0.0536506  
C157     C      0.703690000000     0.983520000000     0.477300000000     0.0609356  
C158     C      0.648880000000     0.956490000000     0.492320000000    -0.0302733  
C159     C      0.776070000000     0.988400000000     0.487700000000     0.060799   
C160     C      0.832260000000     0.990720000000     0.458300000000    -0.044045   
C161     C      0.762080000000     0.961900000000     0.466640000000    -0.0559094  
C162     C      0.869110000000     0.004750000000     0.462720000000     0.0410952  
C163     C      0.865400000000     0.985750000000     0.526360000000    -0.00496188 
C164     C      0.717490000000     0.007920000000     0.500920000000    -0.0558225  
C165     C      0.977430000000     0.660350000000     0.497380000000    -0.0316284  
C166     C      0.010980000000     0.842140000000     0.537720000000    -0.0298685  
C167     C      0.005540000000     0.874420000000     0.469350000000    -0.00625577 
C168     C      0.022470000000     0.879840000000     0.532880000000    -0.0073352  
C169     C      0.034020000000     0.763610000000     0.489420000000    -0.0540503  
C170     C      0.985240000000     0.733970000000     0.534150000000    -0.0538019  
C171     C      0.012100000000     0.785360000000     0.508740000000     0.0610784  
C172     C      0.994290000000     0.836950000000     0.477130000000    -0.0306175  
C173     C      0.007780000000     0.712220000000     0.515540000000     0.060548   
C174     C      0.036990000000     0.655090000000     0.516910000000    -0.044161   
C175     C      0.031530000000     0.727420000000     0.492150000000    -0.0555136  
C176     C      0.031500000000     0.617320000000     0.528830000000     0.0407808  
C177     C      0.968390000000     0.623700000000     0.509780000000    -0.00479462 
C178     C      0.986730000000     0.770070000000     0.530290000000    -0.056209   
C179     C      0.971060000000     0.155420000000     0.459270000000    -0.0312055  
C180     C      0.008740000000     0.337300000000     0.495920000000    -0.0301341  
C181     C      0.955530000000     0.379940000000     0.462880000000    -0.00750375 
C182     C      0.018250000000     0.373420000000     0.482300000000    -0.00657743 
C183     C      0.999900000000     0.262690000000     0.461880000000    -0.0538427  
C184     C      0.949310000000     0.235140000000     0.505940000000    -0.053802   
C185     C      0.977400000000     0.285360000000     0.479430000000     0.0608615  
C186     C      0.949210000000     0.342950000000     0.476250000000    -0.0301214  
C187     C      0.971130000000     0.212510000000     0.487530000000     0.0607448  
C188     C      0.986980000000     0.160870000000     0.520090000000    -0.0447849  
C189     C      0.997440000000     0.226740000000     0.466410000000    -0.055962   
C190     C      0.974950000000     0.123560000000     0.528100000000     0.0422943  
C191     C      0.958460000000     0.118120000000     0.464290000000    -0.00576347 
C192     C      0.952750000000     0.271200000000     0.502560000000    -0.0555994  
Cu1      Cu     0.989160000000     0.999360000000     0.530860000000     0.838876   
Cu2      Cu     0.991190000000     0.998510000000     0.466720000000     0.84511    
Cu3      Cu     0.961650000000     0.501350000000     0.493520000000     0.83996    
Cu4      Cu     0.025410000000     0.496050000000     0.497680000000     0.842449   
Cu5      Cu     0.489640000000     0.952760000000     0.486240000000     0.840477   
Cu6      Cu     0.490290000000     0.016470000000     0.478040000000     0.845821   
Cu7      Cu     0.456650000000     0.991070000000     0.981090000000     0.841475   
Cu8      Cu     0.520650000000     0.989660000000     0.983940000000     0.845633   
Cu9      Cu     0.999180000000     0.462020000000     0.996950000000     0.841169   
Cu10     Cu     0.991670000000     0.525720000000     0.994600000000     0.841392   
Cu11     Cu     0.495870000000     0.493390000000     0.030240000000     0.842946   
Cu12     Cu     0.494760000000     0.489930000000     0.966170000000     0.841367   
H1       H      0.709950000000     0.512370000000     0.034040000000     0.0405808  
H2       H      0.827380000000     0.423210000000     0.015120000000     0.0347029  
H3       H      0.815590000000     0.527330000000     0.980520000000     0.0393215  
H4       H      0.614450000000     0.429860000000     0.027040000000     0.0369047  
H5       H      0.877620000000     0.450790000000     0.038570000000     0.0377828  
H6       H      0.669750000000     0.480480000000     0.944990000000     0.0338309  
H7       H      0.665960000000     0.455110000000     0.052260000000     0.0345823  
H8       H      0.605600000000     0.490520000000     0.944680000000     0.0394487  
H9       H      0.880200000000     0.531190000000     0.971350000000     0.0315601  
H10      H      0.773090000000     0.515290000000     0.036550000000     0.0439118  
H11      H      0.891950000000     0.426800000000     0.001450000000     0.0407387  
H12      H      0.716720000000     0.426140000000     0.962540000000     0.0437601  
H13      H      0.838410000000     0.435250000000     0.971130000000     0.0361078  
H14      H      0.601690000000     0.466440000000     0.052890000000     0.0408439  
H15      H      0.656280000000     0.512820000000     0.976120000000     0.0385778  
H16      H      0.653660000000     0.498220000000     0.038120000000     0.0373346  
H17      H      0.779910000000     0.431290000000     0.962460000000     0.0403121  
H18      H      0.832810000000     0.494450000000     0.952320000000     0.0407647  
H19      H      0.617680000000     0.446210000000     0.953460000000     0.0385396  
H20      H      0.855390000000     0.516360000000     0.057500000000     0.0378397  
H21      H      0.210750000000     0.553390000000     0.965870000000     0.040427   
H22      H      0.326480000000     0.533580000000     0.054450000000     0.0344233  
H23      H      0.318660000000     0.499630000000     0.949760000000     0.0395708  
H24      H      0.112580000000     0.538330000000     0.043050000000     0.0376     
H25      H      0.377800000000     0.555840000000     0.026530000000     0.0362668  
H26      H      0.174730000000     0.459230000000     0.990510000000     0.0336098  
H27      H      0.163170000000     0.565170000000     0.018990000000     0.0343077  
H28      H      0.110780000000     0.454730000000     0.980430000000     0.0393912  
H29      H      0.382850000000     0.487360000000     0.949230000000     0.0318992  
H30      H      0.274000000000     0.557330000000     0.964410000000     0.0436692  
H31      H      0.390470000000     0.520640000000     0.054170000000     0.0404829  
H32      H      0.217560000000     0.474770000000     0.045640000000     0.0436088  
H33      H      0.337490000000     0.489290000000     0.043220000000     0.0370904  
H34      H      0.098750000000     0.561130000000     0.004960000000     0.0406123  
H35      H      0.158770000000     0.490630000000     0.959660000000     0.0382006  
H36      H      0.152660000000     0.550990000000     0.975510000000     0.0362208  
H37      H      0.280680000000     0.476360000000     0.041790000000     0.0403601  
H38      H      0.332800000000     0.470150000000     0.983020000000     0.0411131  
H39      H      0.122650000000     0.461530000000     0.025020000000     0.0393754  
H40      H      0.357320000000     0.573680000000     0.962070000000     0.0372996  
H41      H      0.464400000000     0.699440000000     0.942840000000     0.0406355  
H42      H      0.440470000000     0.814040000000     0.988190000000     0.0339996  
H43      H      0.543560000000     0.819490000000     0.949380000000     0.0403889  
H44      H      0.535060000000     0.620920000000     0.034890000000     0.0380643  
H45      H      0.441900000000     0.863280000000     0.948880000000     0.0380568  
H46      H      0.524130000000     0.659700000000     0.932690000000     0.03461    
H47      H      0.494490000000     0.669090000000     0.038560000000     0.0334663  
H48      H      0.520560000000     0.594610000000     0.937090000000     0.0412201  
H49      H      0.542270000000     0.884650000000     0.955740000000     0.0338673  
H50      H      0.457260000000     0.761900000000     0.933970000000     0.043517   
H51      H      0.438140000000     0.879100000000     0.992650000000     0.0386341  
H52      H      0.541940000000     0.719550000000     0.021320000000     0.04339    
H53      H      0.474500000000     0.831770000000     0.015070000000     0.0384396  
H54      H      0.492340000000     0.604490000000     0.044250000000     0.0396036  
H55      H      0.482200000000     0.643660000000     0.946520000000     0.0380245  
H56      H      0.465120000000     0.649380000000     0.007840000000     0.0388612  
H57      H      0.532100000000     0.781900000000     0.014960000000     0.0405208  
H58      H      0.534100000000     0.835530000000     0.992280000000     0.0401234  
H59      H      0.553980000000     0.613720000000     0.963250000000     0.0366128  
H60      H      0.484910000000     0.846000000000     0.897260000000     0.0385704  
H61      H      0.447260000000     0.272620000000     0.043520000000     0.0402854  
H62      H      0.438350000000     0.166270000000     0.985960000000     0.0338575  
H63      H      0.542340000000     0.161920000000     0.022140000000     0.0404261  
H64      H      0.504740000000     0.367500000000     0.957420000000     0.0403607  
H65      H      0.442220000000     0.112790000000     0.018350000000     0.0390784  
H66      H      0.500060000000     0.319730000000     0.059750000000     0.0344628  
H67      H      0.471520000000     0.315170000000     0.953530000000     0.0336386  
H68      H      0.484810000000     0.384400000000     0.059750000000     0.0401729  
H69      H      0.544270000000     0.097790000000     0.005830000000     0.033582   
H70      H      0.448740000000     0.209150000000     0.045220000000     0.0435049  
H71      H      0.439750000000     0.102590000000     0.972920000000     0.0393736  
H72      H      0.529880000000     0.272460000000     0.967770000000     0.0440705  
H73      H      0.473110000000     0.154160000000     0.957030000000     0.0380975  
H74      H      0.460050000000     0.379990000000     0.954370000000     0.038252   
H75      H      0.456680000000     0.331020000000     0.046080000000     0.0355153  
H76      H      0.440860000000     0.328790000000     0.986120000000     0.0372491  
H77      H      0.529070000000     0.209010000000     0.967050000000     0.0404647  
H78      H      0.532260000000     0.151390000000     0.977750000000     0.039213   
H79      H      0.524040000000     0.372260000000     0.038120000000     0.0382081  
H80      H      0.486530000000     0.120340000000     0.072050000000     0.0389973  
H81      H      0.538120000000     0.040950000000     0.766840000000     0.0403316  
H82      H      0.522500000000     0.948770000000     0.657580000000     0.0347562  
H83      H      0.488770000000     0.053790000000     0.652090000000     0.0395333  
H84      H      0.526330000000     0.958780000000     0.860110000000     0.0395305  
H85      H      0.549360000000     0.972570000000     0.606230000000     0.0361092  
H86      H      0.444150000000     0.015520000000     0.806170000000     0.0334945  
H87      H      0.550430000000     0.987100000000     0.810560000000     0.0344576  
H88      H      0.443220000000     0.021380000000     0.871380000000     0.0384055  
H89      H      0.481750000000     0.047710000000     0.587090000000     0.0315596  
H90      H      0.543720000000     0.041190000000     0.703640000000     0.043628   
H91      H      0.516300000000     0.942640000000     0.593170000000     0.0407113  
H92      H      0.456800000000     0.964030000000     0.759240000000     0.043757   
H93      H      0.479510000000     0.958580000000     0.641460000000     0.037673   
H94      H      0.549500000000     0.995940000000     0.875780000000     0.0412666  
H95      H      0.476120000000     0.045420000000     0.822730000000     0.0377875  
H96      H      0.536470000000     0.029550000000     0.825080000000     0.0361058  
H97      H      0.460000000000     0.967030000000     0.695990000000     0.04058    
H98      H      0.460190000000     0.019330000000     0.638900000000     0.0411064  
H99      H      0.448460000000     0.977740000000     0.855740000000     0.0401315  
H100     H      0.564980000000     0.038530000000     0.622100000000     0.0372179  
H101     H      0.519450000000     0.002850000000     0.270610000000     0.0408585  
H102     H      0.532720000000     0.957930000000     0.157580000000     0.0337258  
H103     H      0.428630000000     0.993980000000     0.155920000000     0.0401482  
H104     H      0.452890000000     0.924600000000     0.361910000000     0.0388096  
H105     H      0.530950000000     0.998260000000     0.109880000000     0.0393993  
H106     H      0.452730000000     0.020770000000     0.308130000000     0.0348517  
H107     H      0.490480000000     0.917110000000     0.311820000000     0.0340933  
H108     H      0.459100000000     0.026100000000     0.372550000000     0.0407598  
H109     H      0.428880000000     0.988490000000     0.090050000000     0.0334367  
H110     H      0.522900000000     0.009090000000     0.207520000000     0.0435172  
H111     H      0.532890000000     0.955130000000     0.092250000000     0.0387215  
H112     H      0.432970000000     0.932520000000     0.259000000000     0.0440436  
H113     H      0.498500000000     0.931350000000     0.139910000000     0.0376887  
H114     H      0.497110000000     0.921540000000     0.376700000000     0.0391943  
H115     H      0.496340000000     0.012870000000     0.323560000000     0.038014   
H116     H      0.518500000000     0.952320000000     0.325020000000     0.0384217  
H117     H      0.438670000000     0.935960000000     0.195840000000     0.040226   
H118     H      0.439650000000     0.951980000000     0.138600000000     0.0388538  
H119     H      0.427840000000     0.994250000000     0.359310000000     0.0362457  
H120     H      0.484830000000     0.050880000000     0.124830000000     0.0393248  
H121     H      0.955360000000     0.445590000000     0.783470000000     0.0405736  
H122     H      0.936090000000     0.498770000000     0.669130000000     0.0344575  
H123     H      0.036840000000     0.453970000000     0.667120000000     0.0410821  
H124     H      0.019590000000     0.536670000000     0.867680000000     0.0389875  
H125     H      0.937960000000     0.461600000000     0.618260000000     0.0400639  
H126     H      0.016780000000     0.434960000000     0.823510000000     0.0346777  
H127     H      0.979910000000     0.538840000000     0.819070000000     0.0337769  
H128     H      0.011140000000     0.435720000000     0.888780000000     0.0409913  
H129     H      0.039470000000     0.462930000000     0.602450000000     0.0324352  
H130     H      0.950050000000     0.439210000000     0.720480000000     0.044958   
H131     H      0.937520000000     0.506230000000     0.604370000000     0.0389397  
H132     H      0.032560000000     0.525600000000     0.768810000000     0.0438683  
H133     H      0.972490000000     0.524360000000     0.654430000000     0.0387346  
H134     H      0.976080000000     0.540570000000     0.884040000000     0.0396098  
H135     H      0.973850000000     0.445230000000     0.839400000000     0.0369163  
H136     H      0.952780000000     0.504960000000     0.836710000000     0.0383158  
H137     H      0.024730000000     0.521520000000     0.705940000000     0.0410503  
H138     H      0.030880000000     0.498040000000     0.652660000000     0.0405716  
H139     H      0.044130000000     0.463750000000     0.871740000000     0.0372332  
H140     H      0.005430000000     0.402550000000     0.581090000000     0.0366882  
H141     H      0.963380000000     0.470820000000     0.286400000000     0.0407584  
H142     H      0.968890000000     0.552550000000     0.167040000000     0.0346433  
H143     H      0.012820000000     0.451530000000     0.173680000000     0.0397112  
H144     H      0.979890000000     0.563890000000     0.372690000000     0.0362881  
H145     H      0.943800000000     0.521310000000     0.119130000000     0.0370055  
H146     H      0.052180000000     0.497450000000     0.322830000000     0.034093   
H147     H      0.950010000000     0.538810000000     0.323420000000     0.0345806  
H148     H      0.051090000000     0.492650000000     0.387780000000     0.0396668  
H149     H      0.018090000000     0.449950000000     0.108350000000     0.0321365  
H150     H      0.956430000000     0.464280000000     0.223580000000     0.0438273  
H151     H      0.974940000000     0.551230000000     0.101970000000     0.0411726  
H152     H      0.037300000000     0.553430000000     0.269670000000     0.0438704  
H153     H      0.012500000000     0.544860000000     0.151570000000     0.0369706  
H154     H      0.947790000000     0.533980000000     0.388270000000     0.0408019  
H155     H      0.016820000000     0.470970000000     0.338500000000     0.0387028  
H156     H      0.957160000000     0.495210000000     0.339430000000     0.0378492  
H157     H      0.032810000000     0.544650000000     0.206900000000     0.0404481  
H158     H      0.037350000000     0.486790000000     0.155470000000     0.0409561  
H159     H      0.048400000000     0.536670000000     0.372140000000     0.0380163  
H160     H      0.934110000000     0.455860000000     0.142350000000     0.0374351  
H161     H      0.200100000000     0.961710000000     0.465030000000     0.0407299  
H162     H      0.317780000000     0.043040000000     0.472960000000     0.034535   
H163     H      0.313690000000     0.941430000000     0.515740000000     0.0395717  
H164     H      0.115540000000     0.055500000000     0.475230000000     0.036718   
H165     H      0.365200000000     0.013320000000     0.445800000000     0.0364581  
H166     H      0.163200000000     0.995030000000     0.554840000000     0.0337519  
H167     H      0.163560000000     0.025070000000     0.448690000000     0.0345224  
H168     H      0.098360000000     0.993440000000     0.554680000000     0.0396028  
H169     H      0.379560000000     0.941000000000     0.519240000000     0.0311429  
H170     H      0.262820000000     0.954050000000     0.459630000000     0.0439019  
H171     H      0.382810000000     0.042550000000     0.477380000000     0.0407392  
H172     H      0.216530000000     0.044230000000     0.539250000000     0.0436408  
H173     H      0.334570000000     0.034750000000     0.516000000000     0.0366241  
H174     H      0.098440000000     0.022400000000     0.447280000000     0.0409777  
H175     H      0.146000000000     0.965850000000     0.522430000000     0.038669   
H176     H      0.145820000000     0.983270000000     0.460830000000     0.0375021  
H177     H      0.279120000000     0.034160000000     0.536410000000     0.0403167  
H178     H      0.332110000000     0.976710000000     0.540070000000     0.0404516  
H179     H      0.115990000000     0.036100000000     0.547150000000     0.0381114  
H180     H      0.343890000000     0.946560000000     0.435860000000     0.0375112  
H181     H      0.700880000000     0.025500000000     0.515190000000     0.0407588  
H182     H      0.813120000000     0.973670000000     0.542620000000     0.0340817  
H183     H      0.818840000000     0.005280000000     0.437180000000     0.0405892  
H184     H      0.616360000000     0.934060000000     0.452390000000     0.0380846  
H185     H      0.863230000000     0.010990000000     0.540310000000     0.0393643  
H186     H      0.663460000000     0.033530000000     0.451670000000     0.0347474  
H187     H      0.663530000000     0.931590000000     0.494040000000     0.0335868  
H188     H      0.598200000000     0.035070000000     0.454830000000     0.0413166  
H189     H      0.883940000000     0.997430000000     0.439030000000     0.0336233  
H190     H      0.763680000000     0.030590000000     0.522480000000     0.0437861  
H191     H      0.878480000000     0.967090000000     0.544160000000     0.0380496  
H192     H      0.716080000000     0.940400000000     0.443650000000     0.0435555  
H193     H      0.829980000000     0.944570000000     0.510030000000     0.037595   
H194     H      0.598800000000     0.931610000000     0.495600000000     0.0398926  
H195     H      0.645980000000     0.026270000000     0.494660000000     0.0377911  
H196     H      0.646190000000     0.967250000000     0.519060000000     0.0386742  
H197     H      0.778660000000     0.943310000000     0.453640000000     0.040305   
H198     H      0.834110000000     0.963010000000     0.450070000000     0.0392926  
H199     H      0.615260000000     0.003910000000     0.424710000000     0.0368919  
H200     H      0.851230000000     0.062210000000     0.493590000000     0.0387112  
H201     H      0.968370000000     0.785760000000     0.544610000000     0.04038    
H202     H      0.953370000000     0.676370000000     0.498550000000     0.0335569  
H203     H      0.057800000000     0.667400000000     0.532770000000     0.0402379  
H204     H      0.031840000000     0.873930000000     0.457440000000     0.0384283  
H205     H      0.955280000000     0.625510000000     0.535450000000     0.0376875  
H206     H      0.026710000000     0.830330000000     0.558920000000     0.0345166  
H207     H      0.997480000000     0.821360000000     0.452970000000     0.0338262  
H208     H      0.015920000000     0.894630000000     0.556820000000     0.041015   
H209     H      0.055020000000     0.602300000000     0.521380000000     0.0336153  
H210     H      0.966110000000     0.722770000000     0.551480000000     0.0429662  
H211     H      0.949540000000     0.612240000000     0.491100000000     0.0393227  
H212     H      0.053050000000     0.774840000000     0.472000000000     0.0438012  
H213     H      0.986320000000     0.659590000000     0.469840000000     0.0384156  
H214     H      0.987300000000     0.885790000000     0.450040000000     0.0390992  
H215     H      0.983230000000     0.842200000000     0.545770000000     0.0371867  
H216     H      0.966330000000     0.836410000000     0.484520000000     0.0384129  
H217     H      0.048520000000     0.711670000000     0.476290000000     0.040407   
H218     H      0.046020000000     0.654460000000     0.489440000000     0.0395664  
H219     H      0.051200000000     0.880350000000     0.530070000000     0.0367295  
H220     H      0.001920000000     0.636280000000     0.586540000000     0.0380495  
H221     H      0.935710000000     0.287670000000     0.517630000000     0.0406413  
H222     H      0.955990000000     0.167430000000     0.437710000000     0.0348896  
H223     H      0.984260000000     0.177060000000     0.543930000000     0.0398094  
H224     H      0.959040000000     0.378810000000     0.434220000000     0.036951   
H225     H      0.929690000000     0.118400000000     0.466650000000     0.0378211  
H226     H      0.032540000000     0.320890000000     0.495180000000     0.0335793  
H227     H      0.928450000000     0.330760000000     0.460250000000     0.0344694  
H228     H      0.037480000000     0.385180000000     0.500380000000     0.0394637  
H229     H      0.993690000000     0.112160000000     0.546930000000     0.0317579  
H230     H      0.929580000000     0.224700000000     0.523060000000     0.0439319  
H231     H      0.964870000000     0.102970000000     0.440540000000     0.0416075  
H232     H      0.019660000000     0.273070000000     0.444750000000     0.0435362  
H233     H      0.998910000000     0.154490000000     0.451640000000     0.0374006  
H234     H      0.932000000000     0.395860000000     0.468050000000     0.040861   
H235     H      0.999950000000     0.339090000000     0.523450000000     0.0381909  
H236     H      0.939980000000     0.344670000000     0.503610000000     0.0371703  
H237     H      0.015750000000     0.210320000000     0.452870000000     0.0405752  
H238     H      0.015020000000     0.160630000000     0.512980000000     0.041349   
H239     H      0.030930000000     0.370580000000     0.456490000000     0.0383083  
H240     H      0.909650000000     0.141130000000     0.528390000000     0.0375471  
N1       N      0.891390000000     0.482480000000     0.995840000000    -0.172207   
N2       N      0.818890000000     0.476560000000     0.002890000000    -0.110924   
N3       N      0.670980000000     0.463850000000     0.997800000000    -0.113305   
N4       N      0.598330000000     0.473120000000     0.997300000000    -0.167498   
N5       N      0.392310000000     0.510500000000     0.999010000000    -0.172348   
N6       N      0.319750000000     0.520960000000     0.000950000000    -0.111302   
N7       N      0.171740000000     0.511260000000     0.009540000000    -0.113039   
N8       N      0.099350000000     0.505300000000     0.001230000000    -0.167116   
N9       N      0.487780000000     0.886630000000     0.968200000000    -0.172782   
N10      N      0.490810000000     0.813410000000     0.965310000000    -0.111473   
N11      N      0.512680000000     0.667980000000     0.986260000000    -0.113385   
N12      N      0.511520000000     0.595040000000     0.992500000000    -0.167803   
N13      N      0.489370000000     0.094140000000     0.997110000000    -0.172391   
N14      N      0.488740000000     0.166500000000     0.008830000000    -0.111155   
N15      N      0.491070000000     0.315140000000     0.005330000000    -0.11279    
N16      N      0.483820000000     0.387700000000     0.004070000000    -0.167153   
N17      N      0.505100000000     0.997150000000     0.584970000000    -0.172634   
N18      N      0.509420000000     0.002650000000     0.657870000000    -0.11144    
N19      N      0.496190000000     0.996630000000     0.805410000000    -0.112952   
N20      N      0.493760000000     0.999070000000     0.878330000000    -0.16717    
N21      N      0.484040000000     0.981450000000     0.086710000000    -0.172353   
N22      N      0.482280000000     0.980590000000     0.159770000000    -0.111055   
N23      N      0.468460000000     0.967620000000     0.306680000000    -0.113585   
N24      N      0.473850000000     0.972270000000     0.379500000000    -0.16793    
N25      N      0.986030000000     0.479210000000     0.598240000000    -0.172329   
N26      N      0.984910000000     0.472920000000     0.671320000000    -0.109965   
N27      N      0.002160000000     0.488130000000     0.817980000000    -0.113126   
N28      N      0.000480000000     0.490750000000     0.891130000000    -0.167123   
N29      N      0.989310000000     0.496980000000     0.100350000000    -0.172184   
N30      N      0.986880000000     0.500540000000     0.173510000000    -0.111376   
N31      N      0.002320000000     0.521150000000     0.319640000000    -0.113482   
N32      N      0.001270000000     0.517490000000     0.392810000000    -0.167557   
N33      N      0.385710000000     0.987900000000     0.490000000000    -0.172391   
N34      N      0.312660000000     0.990600000000     0.490110000000    -0.111358   
N35      N      0.166920000000     0.013330000000     0.502720000000    -0.113439   
N36      N      0.093800000000     0.013080000000     0.502440000000    -0.167715   
N37      N      0.886070000000     0.991060000000     0.494450000000    -0.172418   
N38      N      0.813040000000     0.993970000000     0.491170000000    -0.111146   
N39      N      0.666990000000     0.981170000000     0.469570000000    -0.113423   
N40      N      0.593860000000     0.981120000000     0.469800000000    -0.167459   
N41      N      0.999820000000     0.601940000000     0.513420000000    -0.172252   
N42      N      0.004400000000     0.674950000000     0.520010000000    -0.111226   
N43      N      0.015940000000     0.822660000000     0.505130000000    -0.113324   
N44      N      0.006910000000     0.895420000000     0.501420000000    -0.167456   
N45      N      0.973220000000     0.102400000000     0.496100000000    -0.17219    
N46      N      0.966160000000     0.175390000000     0.491560000000    -0.111316   
N47      N      0.981420000000     0.322410000000     0.473860000000    -0.113306   
N48      N      0.987060000000     0.395410000000     0.478370000000    -0.167602   
O1       O      0.982420000000     0.051770000000     0.526470000000    -0.395215   
O2       O      0.996880000000     0.947280000000     0.528980000000    -0.399412   
O3       O      0.041360000000     0.005910000000     0.529600000000    -0.398791   
O4       O      0.936870000000     0.992300000000     0.525800000000    -0.396147   
O5       O      0.939180000000     0.992360000000     0.467910000000    -0.400559   
O6       O      0.043220000000     0.006040000000     0.471710000000    -0.399319   
O7       O      0.997920000000     0.946090000000     0.471080000000    -0.397943   
O8       O      0.983380000000     0.050550000000     0.468570000000    -0.399512   
O9       O      0.961450000000     0.449100000000     0.484410000000    -0.397414   
O10      O      0.968060000000     0.552810000000     0.502340000000    -0.400234   
O11      O      0.968670000000     0.510410000000     0.442110000000    -0.399276   
O12      O      0.960940000000     0.492610000000     0.545770000000    -0.397226   
O13      O      0.018440000000     0.486810000000     0.548960000000    -0.400036   
O14      O      0.026170000000     0.504870000000     0.445510000000    -0.398076   
O15      O      0.025560000000     0.548310000000     0.506950000000    -0.396356   
O16      O      0.018970000000     0.444560000000     0.488830000000    -0.399763   
O17      O      0.541800000000     0.954190000000     0.479960000000    -0.399486   
O18      O      0.437200000000     0.957670000000     0.492230000000    -0.394852   
O19      O      0.483420000000     0.949440000000     0.433760000000    -0.396959   
O20      O      0.496770000000     0.962250000000     0.537470000000    -0.400504   
O21      O      0.496510000000     0.019810000000     0.530460000000    -0.396804   
O22      O      0.482960000000     0.007020000000     0.426860000000    -0.400711   
O23      O      0.438250000000     0.015060000000     0.484100000000    -0.401734   
O24      O      0.542560000000     0.011570000000     0.471720000000    -0.398046   
O25      O      0.460410000000     0.043380000000     0.985700000000    -0.399423   
O26      O      0.459170000000     0.938290000000     0.976880000000    -0.398161   
O27      O      0.457450000000     0.986960000000     0.033650000000    -0.398074   
O28      O      0.462210000000     0.995820000000     0.928790000000    -0.398184   
O29      O      0.520020000000     0.996490000000     0.931720000000    -0.39936    
O30      O      0.515080000000     0.982140000000     0.035860000000    -0.398957   
O31      O      0.517030000000     0.937860000000     0.975740000000    -0.40093    
O32      O      0.517940000000     0.041950000000     0.991760000000    -0.397732   
O33      O      0.998170000000     0.467010000000     0.049530000000    -0.396121   
O34      O      0.000110000000     0.463380000000     0.944160000000    -0.398047   
O35      O      0.050950000000     0.470960000000     0.997260000000    -0.39965    
O36      O      0.946390000000     0.459270000000     0.996780000000    -0.397768   
O37      O      0.939970000000     0.516640000000     0.991560000000    -0.397266   
O38      O      0.044410000000     0.528560000000     0.998240000000    -0.397122   
O39      O      0.994930000000     0.521090000000     0.942150000000    -0.398444   
O40      O      0.988270000000     0.524080000000     0.047220000000    -0.398555   
O41      O      0.488270000000     0.441190000000     0.030060000000    -0.399629   
O42      O      0.503600000000     0.545230000000     0.024210000000    -0.399694   
O43      O      0.443940000000     0.502080000000     0.027580000000    -0.399436   
O44      O      0.547700000000     0.484360000000     0.026640000000    -0.398931   
O45      O      0.546850000000     0.482170000000     0.968760000000    -0.398506   
O46      O      0.442750000000     0.498090000000     0.969810000000    -0.39665    
O47      O      0.503280000000     0.542060000000     0.966380000000    -0.398399   
O48      O      0.486700000000     0.438070000000     0.972230000000    -0.3985     
S1       S      0.867380000000     0.537340000000     0.031320000000    -0.0410264  
S2       S      0.373690000000     0.548060000000     0.943520000000    -0.0424123  
S3       S      0.511180000000     0.868640000000     0.905350000000    -0.0463825  
S4       S      0.516420000000     0.105160000000     0.060080000000    -0.0433139  
S5       S      0.541420000000     0.054390000000     0.600620000000    -0.0425995  
S6       S      0.455320000000     0.041220000000     0.107440000000    -0.042327   
S7       S      0.004050000000     0.414220000000     0.614720000000    -0.0455288  
S8       S      0.959750000000     0.438820000000     0.124470000000    -0.0425127  
S9       S      0.361470000000     0.929240000000     0.461540000000    -0.0405896  
S10      S      0.868530000000     0.051280000000     0.464450000000    -0.0440564  
S11      S      0.028440000000     0.615420000000     0.575160000000    -0.044985   
S12      S      0.933330000000     0.124020000000     0.548740000000    -0.042328   


