data_structure

_audit_creation_method RASPA-1.0
_audit_creation_date 2023-5-25
_audit_author_name 'Poobodin Mano'

_cell_length_a    38.1777
_cell_length_b    38.1841
_cell_length_c    38.2908
_cell_angle_alpha 90
_cell_angle_beta  90
_cell_angle_gamma 90
_cell_volume      55819.6

_symmetry_cell_setting          triclinic
_symmetry_space_group_name_Hall 'P 1'
_symmetry_space_group_name_H-M  'P 1'
_symmetry_Int_Tables_number     1

_symmetry_equiv_pos_as_xyz 'x,y,z'

loop_
_atom_site_label
_atom_site_type_symbol
_atom_site_fract_x
_atom_site_fract_y
_atom_site_fract_z
_atom_site_charge
C1       C      0.993870000000     0.051630000000     0.501910000000     0.409141   
C2       C      0.017540000000     0.915550000000     0.519550000000     0.41516    
C3       C      0.937400000000     0.971780000000     0.506460000000     0.411674   
C4       C      0.074800000000     0.994710000000     0.514950000000     0.408309   
C5       C      0.995230000000     0.415900000000     0.507490000000     0.416983   
C6       C      0.991520000000     0.554610000000     0.495640000000     0.401825   
C7       C      0.986670000000     0.479020000000     0.432810000000     0.408081   
C8       C      0.000180000000     0.490760000000     0.570610000000     0.407555   
C9       C      0.573800000000     0.003410000000     0.483150000000     0.404093   
C10      C      0.435470000000     0.021800000000     0.482080000000     0.400401   
C11      C      0.507560000000     0.020510000000     0.413890000000     0.402695   
C12      C      0.503100000000     0.004180000000     0.552150000000     0.403259   
C13      C      0.493060000000     0.066570000000     0.966510000000     0.403289   
C14      C      0.485970000000     0.930800000000     0.998540000000     0.405703   
C15      C      0.496630000000     0.014640000000     0.050030000000     0.404353   
C16      C      0.482370000000     0.982800000000     0.915230000000     0.401879   
C17      C      0.982340000000     0.504800000000     0.070740000000     0.414362   
C18      C      0.007110000000     0.511060000000     0.934270000000     0.400821   
C19      C      0.063180000000     0.502520000000     0.013550000000     0.407111   
C20      C      0.925850000000     0.513590000000     0.992510000000     0.404153   
C21      C      0.508260000000     0.430860000000     0.975930000000     0.398812   
C22      C      0.475860000000     0.566450000000     0.985320000000     0.398676   
C23      C      0.424330000000     0.481950000000     0.980430000000     0.400226   
C24      C      0.559830000000     0.515060000000     0.980760000000     0.399692   
C25      C      0.832610000000     0.493680000000     0.968040000000    -0.0267922  
C26      C      0.649330000000     0.526480000000     0.015480000000    -0.0302152  
C27      C      0.614600000000     0.524150000000     0.947750000000    -0.00645426 
C28      C      0.611270000000     0.538560000000     0.012290000000    -0.00715287 
C29      C      0.726970000000     0.549890000000     0.964610000000    -0.0509517  
C30      C      0.757580000000     0.498320000000     0.006330000000    -0.0505409  
C31      C      0.705460000000     0.527540000000     0.984200000000     0.0626897  
C32      C      0.652220000000     0.511750000000     0.953800000000    -0.0302855  
C33      C      0.779090000000     0.521560000000     0.987830000000     0.0673617  
C34      C      0.835600000000     0.552240000000     0.991420000000    -0.0200569  
C35      C      0.763410000000     0.546590000000     0.965770000000    -0.0553357  
C36      C      0.872490000000     0.547040000000     0.006250000000    -0.0127344  
C37      C      0.869580000000     0.484650000000     0.980770000000    -0.00485408 
C38      C      0.721140000000     0.500680000000     0.004030000000    -0.0533344  
C39      C      0.156400000000     0.519940000000     0.998090000000    -0.0266617  
C40      C      0.338560000000     0.465650000000     0.019030000000    -0.029981   
C41      C      0.367240000000     0.479840000000     0.949880000000    -0.00641591 
C42      C      0.374750000000     0.451880000000     0.009160000000    -0.00685993 
C43      C      0.254320000000     0.457700000000     0.976000000000    -0.0512435  
C44      C      0.233980000000     0.504670000000     0.028120000000    -0.0507503  
C45      C      0.280030000000     0.475550000000     0.995100000000     0.0627011  
C46      C      0.331250000000     0.492990000000     0.961930000000    -0.0305187  
C47      C      0.208300000000     0.485850000000     0.009920000000     0.0670042  
C48      C      0.150020000000     0.459850000000     0.018020000000    -0.0187399  
C49      C      0.218770000000     0.463220000000     0.982750000000    -0.0556151  
C50      C      0.113690000000     0.467240000000     0.033630000000    -0.0136177  
C51      C      0.121340000000     0.530610000000     0.014200000000    -0.00516702 
C52      C      0.269470000000     0.500220000000     0.020380000000    -0.0538213  
C53      C      0.505480000000     0.836630000000     0.990910000000    -0.0267789  
C54      C      0.464080000000     0.653130000000     0.026720000000    -0.0301861  
C55      C      0.469560000000     0.624040000000     0.956540000000    -0.00666552 
C56      C      0.451520000000     0.615710000000     0.019680000000    -0.00742449 
C57      C      0.445610000000     0.735210000000     0.980030000000    -0.0509575  
C58      C      0.493680000000     0.761790000000     0.028160000000    -0.0507062  
C59      C      0.465480000000     0.711850000000     0.000190000000     0.0621203  
C60      C      0.482190000000     0.660820000000     0.966410000000    -0.030335   
C61      C      0.473210000000     0.785130000000     0.008590000000     0.0668344  
C62      C      0.445750000000     0.843340000000     0.011600000000    -0.0187918  
C63      C      0.449850000000     0.771420000000     0.983550000000    -0.0556661  
C64      C      0.452410000000     0.881250000000     0.023440000000    -0.0137696  
C65      C      0.515490000000     0.873470000000     0.003130000000    -0.00506812 
C66      C      0.490480000000     0.725580000000     0.023600000000    -0.0533109  
C67      C      0.533730000000     0.153320000000     0.952770000000    -0.0258797  
C68      C      0.503500000000     0.336990000000     0.996840000000    -0.0304462  
C69      C      0.530090000000     0.381100000000     0.940650000000    -0.00717118 
C70      C      0.517200000000     0.373790000000     0.005100000000    -0.00656243 
C71      C      0.537810000000     0.261960000000     0.981210000000    -0.052327   
C72      C      0.485630000000     0.235600000000     0.937430000000    -0.0498435  
C73      C      0.516620000000     0.285390000000     0.962530000000     0.0625483  
C74      C      0.516610000000     0.343760000000     0.935120000000    -0.0303061  
C75      C      0.507410000000     0.212130000000     0.955400000000     0.0631083  
C76      C      0.474270000000     0.161240000000     0.973790000000    -0.0218542  
C77      C      0.532890000000     0.225780000000     0.978360000000    -0.0544129  
C78      C      0.463590000000     0.124090000000     0.962420000000    -0.0153989  
C79      C      0.526100000000     0.115930000000     0.940600000000    -0.00727466 
C80      C      0.489590000000     0.271790000000     0.941410000000    -0.0543199  
C81      C      0.492660000000     0.960450000000     0.638800000000    -0.0261745  
C82      C      0.455550000000     0.995640000000     0.824480000000    -0.0302573  
C83      C      0.505430000000     0.952620000000     0.862980000000    -0.00624993 
C84      C      0.446510000000     0.982600000000     0.861340000000    -0.00642123 
C85      C      0.461870000000     0.960210000000     0.746300000000    -0.0520616  
C86      C      0.513810000000     0.005500000000     0.721930000000    -0.0498287  
C87      C      0.483290000000     0.977720000000     0.770360000000     0.0635858  
C88      C      0.512300000000     0.966410000000     0.826200000000    -0.0302769  
C89      C      0.493490000000     0.986810000000     0.697740000000     0.0632065  
C90      C      0.486760000000     0.023130000000     0.646040000000    -0.0227095  
C91      C      0.466350000000     0.965120000000     0.710360000000    -0.0534132  
C92      C      0.504590000000     0.030840000000     0.610900000000    -0.0147295  
C93      C      0.509320000000     0.964490000000     0.602640000000    -0.00706736 
C94      C      0.508340000000     0.001700000000     0.757800000000    -0.0535841  
C95      C      0.515570000000     0.062480000000     0.325500000000    -0.0257491  
C96      C      0.477950000000     0.015870000000     0.144930000000    -0.0306954  
C97      C      0.533380000000     0.038360000000     0.097600000000    -0.00579525 
C98      C      0.468840000000     0.025150000000     0.107160000000    -0.00415918 
C99      C      0.492440000000     0.059060000000     0.214990000000    -0.0507869  
C100     C      0.536270000000     0.010190000000     0.247030000000    -0.0510056  
C101     C      0.511960000000     0.035970000000     0.194140000000     0.0624506  
C102     C      0.539290000000     0.029570000000     0.136180000000    -0.030561   
C103     C      0.516900000000     0.033370000000     0.267860000000     0.0677319  
C104     C      0.495780000000     0.002700000000     0.319020000000    -0.0208725  
C105     C      0.494240000000     0.057420000000     0.251450000000    -0.0558274  
C106     C      0.507550000000     0.992510000000     0.355900000000    -0.0112475  
C107     C      0.526310000000     0.056520000000     0.363680000000    -0.00576568 
C108     C      0.533360000000     0.010850000000     0.210660000000    -0.0518295  
C109     C      0.981470000000     0.514450000000     0.663120000000    -0.0272136  
C110     C      0.022130000000     0.477940000000     0.845380000000    -0.0300573  
C111     C      0.011600000000     0.545290000000     0.879700000000    -0.00620089 
C112     C      0.034220000000     0.483050000000     0.882980000000    -0.00688996 
C113     C      0.039870000000     0.527010000000     0.766610000000    -0.0519155  
C114     C      0.989660000000     0.481580000000     0.739030000000    -0.0528795  
C115     C      0.018240000000     0.507980000000     0.789290000000     0.0627668  
C116     C      0.999950000000     0.537630000000     0.842150000000    -0.0305293  
C117     C      0.012200000000     0.499510000000     0.716340000000     0.0635157  
C118     C      0.041650000000     0.495170000000     0.659160000000    -0.0223277  
C119     C      0.036530000000     0.523430000000     0.730420000000    -0.0544102  
C120     C      0.036280000000     0.479140000000     0.622770000000    -0.0172399  
C121     C      0.972070000000     0.498630000000     0.627710000000    -0.00585203 
C122     C      0.992000000000     0.486300000000     0.775080000000    -0.0541972  
C123     C      0.004660000000     0.493400000000     0.339130000000    -0.0269175  
C124     C      0.962050000000     0.465100000000     0.156270000000    -0.03061    
C125     C      0.981530000000     0.533490000000     0.128450000000    -0.00326179 
C126     C      0.951920000000     0.474800000000     0.118960000000    -0.00347774 
C127     C      0.947830000000     0.510130000000     0.238380000000    -0.0519319  
C128     C      0.992350000000     0.458040000000     0.263910000000    -0.051597   
C129     C      0.967270000000     0.489820000000     0.214870000000     0.0642504  
C130     C      0.990960000000     0.521100000000     0.165290000000    -0.0306687  
C131     C      0.972390000000     0.477860000000     0.287400000000     0.0635805  
C132     C      0.944520000000     0.473910000000     0.345140000000    -0.0220703  
C133     C      0.950760000000     0.504760000000     0.274360000000    -0.0540166  
C134     C      0.950880000000     0.460210000000     0.382370000000    -0.0173382  
C135     C      0.014670000000     0.479220000000     0.375010000000    -0.00587456 
C136     C      0.990460000000     0.464340000000     0.228050000000    -0.054147   
C137     C      0.161880000000     0.030530000000     0.540180000000    -0.026111   
C138     C      0.342610000000     0.996490000000     0.483150000000    -0.0298598  
C139     C      0.384060000000     0.060040000000     0.491580000000    -0.00649995 
C140     C      0.377390000000     0.000160000000     0.463900000000    -0.00711826 
C141     C      0.265300000000     0.048890000000     0.483210000000    -0.0514734  
C142     C      0.245260000000     0.001420000000     0.535040000000    -0.0528254  
C143     C      0.290970000000     0.029390000000     0.500690000000     0.0625026  
C144     C      0.348990000000     0.053830000000     0.510180000000    -0.0302394  
C145     C      0.219510000000     0.018620000000     0.515430000000     0.0644279  
C146     C      0.166940000000     0.999760000000     0.484900000000    -0.0209355  
C147     C      0.229820000000     0.044110000000     0.490890000000    -0.0553344  
C148     C      0.132500000000     0.980150000000     0.490480000000    -0.0174858  
C149     C      0.127110000000     0.012140000000     0.548820000000    -0.00671558 
C150     C      0.280770000000     0.007190000000     0.528280000000    -0.05342    
C151     C      0.849960000000     0.965480000000     0.465600000000    -0.0269757  
C152     C      0.668530000000     0.015410000000     0.502990000000    -0.0297048  
C153     C      0.623820000000     0.968130000000     0.463050000000    -0.00799623 
C154     C      0.632820000000     0.028410000000     0.490230000000    -0.00653836 
C155     C      0.744000000000     0.003420000000     0.466060000000    -0.0502564  
C156     C      0.766990000000     0.950310000000     0.510640000000    -0.0487931  
C157     C      0.719280000000     0.982820000000     0.483660000000     0.064298   
C158     C      0.660240000000     0.958430000000     0.476470000000    -0.0289573  
C159     C      0.791710000000     0.970190000000     0.492200000000     0.0650084  
C160     C      0.843430000000     0.983560000000     0.526060000000    -0.0234251  
C161     C      0.779860000000     0.997750000000     0.470730000000    -0.0531665  
C162     C      0.879850000000     0.969480000000     0.535810000000    -0.011467   
C163     C      0.886590000000     0.950720000000     0.472270000000    -0.00389398 
C164     C      0.731170000000     0.956890000000     0.507030000000    -0.0533979  
C165     C      0.025130000000     0.825280000000     0.490980000000    -0.0251854  
C166     C      0.967990000000     0.644890000000     0.517890000000    -0.0304786  
C167     C      0.019790000000     0.608870000000     0.474900000000    -0.00658855 
C168     C      0.958570000000     0.610080000000     0.500330000000    -0.00613729 
C169     C      0.977970000000     0.725330000000     0.490600000000    -0.0511958  
C170     C      0.029380000000     0.745050000000     0.538680000000    -0.0498624  
C171     C      0.998280000000     0.699520000000     0.506890000000     0.0632198  
C172     C      0.026680000000     0.643790000000     0.492940000000    -0.0300242  
C173     C      0.010820000000     0.770880000000     0.520490000000     0.0649459  
C174     C      0.998420000000     0.826350000000     0.548840000000    -0.0224024  
C175     C      0.983590000000     0.760720000000     0.497810000000    -0.0544234  
C176     C      0.014090000000     0.862710000000     0.556750000000    -0.0142352  
C177     C      0.042590000000     0.860580000000     0.496740000000    -0.00667501 
C178     C      0.022740000000     0.709610000000     0.532570000000    -0.053771   
C179     C      0.005800000000     0.141860000000     0.471270000000    -0.0266428  
C180     C      0.962130000000     0.325140000000     0.514100000000    -0.0299324  
C181     C      0.028630000000     0.360890000000     0.502540000000    -0.00237856 
C182     C      0.967660000000     0.361720000000     0.529220000000    -0.00397478 
C183     C      0.015570000000     0.246790000000     0.522240000000    -0.0515017  
C184     C      0.965040000000     0.219750000000     0.476830000000    -0.0508096  
C185     C      0.993030000000     0.269740000000     0.504670000000     0.065088   
C186     C      0.020080000000     0.324610000000     0.487920000000    -0.0305965  
C187     C      0.986320000000     0.196810000000     0.495900000000     0.0637592  
C188     C      0.976610000000     0.142810000000     0.527870000000    -0.0215434  
C189     C      0.012790000000     0.210670000000     0.517470000000    -0.0538899  
C190     C      0.964690000000     0.104720000000     0.524080000000    -0.017538   
C191     C      0.993960000000     0.104160000000     0.464350000000    -0.00609094 
C192     C      0.968740000000     0.255970000000     0.480560000000    -0.0537134  
Cu1      Cu     0.008890000000     0.979830000000     0.478840000000     0.854998   
Cu2      Cu     0.003170000000     0.987490000000     0.542640000000     0.868753   
Cu3      Cu     0.961220000000     0.484750000000     0.505120000000     0.854549   
Cu4      Cu     0.025530000000     0.485780000000     0.498230000000     0.858318   
Cu5      Cu     0.500460000000     0.980790000000     0.478900000000     0.857649   
Cu6      Cu     0.508790000000     0.044350000000     0.487140000000     0.849746   
Cu7      Cu     0.457440000000     0.001130000000     0.985620000000     0.857262   
Cu8      Cu     0.521600000000     0.996280000000     0.979600000000     0.842854   
Cu9      Cu     0.992280000000     0.475920000000     0.000670000000     0.851277   
Cu10     Cu     0.996940000000     0.540150000000     0.004320000000     0.852936   
Cu11     Cu     0.492260000000     0.496450000000     0.012760000000     0.842518   
Cu12     Cu     0.491800000000     0.500840000000     0.948470000000     0.84215    
H1       H      0.705540000000     0.481900000000     0.018320000000     0.0436696  
H2       H      0.817090000000     0.469020000000     0.967060000000     0.0372265  
H3       H      0.821400000000     0.572550000000     0.006720000000     0.0502006  
H4       H      0.615240000000     0.551350000000     0.937400000000     0.0400544  
H5       H      0.867510000000     0.467020000000     0.003790000000     0.05567    
H6       H      0.662140000000     0.541580000000     0.036810000000     0.0391235  
H7       H      0.667150000000     0.515610000000     0.929120000000     0.035957   
H8       H      0.597040000000     0.531350000000     0.036570000000     0.0434338  
H9       H      0.887640000000     0.571270000000     0.000650000000     0.0544086  
H10      H      0.769210000000     0.478320000000     0.022700000000     0.053554   
H11      H      0.883230000000     0.469680000000     0.959890000000     0.0407441  
H12      H      0.715350000000     0.569990000000     0.948350000000     0.0464893  
H13      H      0.833740000000     0.504590000000     0.941070000000     0.0378994  
H14      H      0.602450000000     0.507110000000     0.927550000000     0.0419705  
H15      H      0.649260000000     0.498260000000     0.022740000000     0.0398336  
H16      H      0.652420000000     0.483280000000     0.960180000000     0.0404759  
H17      H      0.779090000000     0.564170000000     0.950100000000     0.0435862  
H18      H      0.837980000000     0.562220000000     0.964180000000     0.0364302  
H19      H      0.610960000000     0.567610000000     0.010280000000     0.039279   
H20      H      0.858930000000     0.500880000000     0.089220000000     0.155102   
H21      H      0.288410000000     0.515670000000     0.034610000000     0.0438138  
H22      H      0.173820000000     0.543320000000     0.998040000000     0.0378548  
H23      H      0.162900000000     0.438260000000     0.032750000000     0.0489529  
H24      H      0.363610000000     0.455170000000     0.934870000000     0.0403679  
H25      H      0.126230000000     0.543030000000     0.039990000000     0.0561188  
H26      H      0.326510000000     0.447270000000     0.038130000000     0.0388152  
H27      H      0.313880000000     0.494840000000     0.938660000000     0.0365745  
H28      H      0.391660000000     0.451710000000     0.032780000000     0.0431916  
H29      H      0.096920000000     0.444180000000     0.027750000000     0.0561213  
H30      H      0.226370000000     0.523030000000     0.048300000000     0.0543207  
H31      H      0.109080000000     0.550640000000     0.997020000000     0.0430601  
H32      H      0.261940000000     0.439430000000     0.955740000000     0.047122   
H33      H      0.152450000000     0.511500000000     0.970510000000     0.0390488  
H34      H      0.378980000000     0.499680000000     0.932120000000     0.0417031  
H35      H      0.341970000000     0.491590000000     0.031830000000     0.0405408  
H36      H      0.333840000000     0.519650000000     0.973470000000     0.0407245  
H37      H      0.199780000000     0.449380000000     0.967030000000     0.0438147  
H38      H      0.146090000000     0.450750000000     0.990690000000     0.0368328  
H39      H      0.371930000000     0.424300000000     0.000280000000     0.0389817  
H40      H      0.146840000000     0.498930000000     0.118020000000     0.157656   
H41      H      0.507340000000     0.708640000000     0.038710000000     0.0437827  
H42      H      0.529380000000     0.819960000000     0.991970000000     0.0377079  
H43      H      0.424820000000     0.831420000000     0.027990000000     0.0492329  
H44      H      0.443010000000     0.626120000000     0.944770000000     0.0400139  
H45      H      0.528860000000     0.871550000000     0.028850000000     0.0561206  
H46      H      0.448080000000     0.664400000000     0.048250000000     0.0386755  
H47      H      0.479970000000     0.677810000000     0.942880000000     0.0359184  
H48      H      0.457110000000     0.599370000000     0.043040000000     0.0434627  
H49      H      0.428750000000     0.896730000000     0.016480000000     0.0565338  
H50      H      0.512500000000     0.771820000000     0.046810000000     0.0543564  
H51      H      0.534590000000     0.884560000000     0.984190000000     0.0421463  
H52      H      0.426970000000     0.725220000000     0.961180000000     0.0463396  
H53      H      0.496300000000     0.837530000000     0.963300000000     0.0389354  
H54      H      0.487530000000     0.613250000000     0.936370000000     0.0419808  
H55      H      0.491880000000     0.651870000000     0.035380000000     0.0397423  
H56      H      0.510270000000     0.659920000000     0.974280000000     0.0406504  
H57      H      0.434560000000     0.788370000000     0.966880000000     0.0437829  
H58      H      0.435980000000     0.844340000000     0.984240000000     0.0372189  
H59      H      0.422620000000     0.616230000000     0.016140000000     0.0392356  
H60      H      0.487140000000     0.857710000000     0.109810000000     0.15864    
H61      H      0.471730000000     0.288810000000     0.927590000000     0.0442989  
H62      H      0.554580000000     0.164560000000     0.935830000000     0.0392249  
H63      H      0.450760000000     0.178490000000     0.973160000000     0.0439121  
H64      H      0.559170000000     0.380260000000     0.942040000000     0.0387475  
H65      H      0.521510000000     0.116260000000     0.911950000000     0.0565     
H66      H      0.507580000000     0.320320000000     0.020350000000     0.0362843  
H67      H      0.530670000000     0.332050000000     0.912500000000     0.0379122  
H68      H      0.501120000000     0.385010000000     0.026580000000     0.0419075  
H69      H      0.445960000000     0.113600000000     0.983040000000     0.0551931  
H70      H      0.465200000000     0.225740000000     0.920470000000     0.0485522  
H71      H      0.549810000000     0.099690000000     0.945250000000     0.0445426  
H72      H      0.558080000000     0.271880000000     0.998340000000     0.0461544  
H73      H      0.543690000000     0.152020000000     0.980050000000     0.0377511  
H74      H      0.522950000000     0.397200000000     0.917540000000     0.0431617  
H75      H      0.474860000000     0.338040000000     0.991360000000     0.0411531  
H76      H      0.488210000000     0.345260000000     0.928750000000     0.0400866  
H77      H      0.549400000000     0.208820000000     0.993820000000     0.0426195  
H78      H      0.483740000000     0.160580000000     0.001300000000     0.0390195  
H79      H      0.544660000000     0.371650000000     0.014550000000     0.0401322  
H80      H      0.449980000000     0.169750000000     0.889690000000     0.154164   
H81      H      0.524350000000     0.016880000000     0.775490000000     0.0465104  
H82      H      0.502790000000     0.935950000000     0.650870000000     0.0387705  
H83      H      0.490910000000     0.045720000000     0.663940000000     0.0458199  
H84      H      0.495430000000     0.925350000000     0.860840000000     0.0383081  
H85      H      0.537960000000     0.959790000000     0.604920000000     0.0561205  
H86      H      0.430730000000     0.998380000000     0.809480000000     0.0412988  
H87      H      0.529640000000     0.947560000000     0.812330000000     0.0383322  
H88      H      0.430670000000     0.002960000000     0.874840000000     0.0539126  
H89      H      0.490370000000     0.053180000000     0.598790000000     0.0543612  
H90      H      0.534120000000     0.023080000000     0.712870000000     0.0502463  
H91      H      0.498690000000     0.943610000000     0.585390000000     0.0446659  
H92      H      0.441800000000     0.942410000000     0.755500000000     0.0475724  
H93      H      0.463800000000     0.957890000000     0.635460000000     0.0377381  
H94      H      0.530610000000     0.951540000000     0.877520000000     0.0434146  
H95      H      0.468170000000     0.021890000000     0.826100000000     0.0489956  
H96      H      0.526240000000     0.991890000000     0.828540000000     0.0427518  
H97      H      0.449170000000     0.951140000000     0.692800000000     0.0432376  
H98      H      0.457960000000     0.020520000000     0.642130000000     0.0399053  
H99      H      0.430270000000     0.958530000000     0.859060000000     0.0422746  
H100     H      0.574270000000     0.018860000000     0.660990000000     0.154876   
H101     H      0.547910000000     0.991710000000     0.195790000000     0.0464725  
H102     H      0.532600000000     0.083250000000     0.314220000000     0.0397376  
H103     H      0.496090000000     0.979000000000     0.302060000000     0.048229   
H104     H      0.532380000000     0.067330000000     0.094760000000     0.0387871  
H105     H      0.555350000000     0.055050000000     0.365120000000     0.0547831  
H106     H      0.454390000000     0.020950000000     0.161310000000     0.0401346  
H107     H      0.561760000000     0.045320000000     0.145980000000     0.0382809  
H108     H      0.447970000000     0.006990000000     0.098050000000     0.0531428  
H109     H      0.487360000000     0.974500000000     0.366690000000     0.0539461  
H110     H      0.553120000000     0.990900000000     0.259190000000     0.0609422  
H111     H      0.518230000000     0.079780000000     0.379180000000     0.0435894  
H112     H      0.475150000000     0.077950000000     0.202840000000     0.0466926  
H113     H      0.487990000000     0.071930000000     0.325030000000     0.0369895  
H114     H      0.556280000000     0.028930000000     0.082320000000     0.04455    
H115     H      0.484410000000     0.987480000000     0.146950000000     0.0512821  
H116     H      0.546240000000     0.001330000000     0.138050000000     0.0433751  
H117     H      0.477950000000     0.074990000000     0.266480000000     0.0436207  
H118     H      0.468250000000     0.012350000000     0.319710000000     0.0393328  
H119     H      0.458060000000     0.052200000000     0.106440000000     0.0416833  
H120     H      0.600790000000     0.978290000000     0.336280000000     0.156692   
H121     H      0.973780000000     0.472390000000     0.791640000000     0.0433726  
H122     H      0.957380000000     0.514630000000     0.679510000000     0.0368079  
H123     H      0.063140000000     0.481190000000     0.673000000000     0.0453443  
H124     H      0.037310000000     0.558950000000     0.878990000000     0.0408077  
H125     H      0.957910000000     0.473550000000     0.631970000000     0.0554247  
H126     H      0.039590000000     0.458430000000     0.832600000000     0.0385823  
H127     H      0.000940000000     0.562540000000     0.827080000000     0.0371205  
H128     H      0.030810000000     0.458000000000     0.897360000000     0.0437874  
H129     H      0.059420000000     0.486280000000     0.606630000000     0.0556629  
H130     H      0.970150000000     0.463840000000     0.728600000000     0.0491918  
H131     H      0.953730000000     0.516770000000     0.614180000000     0.0417803  
H132     H      0.059510000000     0.544570000000     0.777090000000     0.0472842  
H133     H      0.990320000000     0.542060000000     0.659830000000     0.0392123  
H134     H      0.992210000000     0.563190000000     0.892020000000     0.0421699  
H135     H      0.995040000000     0.467210000000     0.845970000000     0.0402213  
H136     H      0.972390000000     0.528030000000     0.842090000000     0.0406142  
H137     H      0.053510000000     0.538730000000     0.713770000000     0.0437579  
H138     H      0.049990000000     0.522930000000     0.655860000000     0.037556   
H139     H      0.062700000000     0.489150000000     0.882770000000     0.0387289  
H140     H      0.011650000000     0.418420000000     0.674840000000     0.15504    
H141     H      0.007000000000     0.449150000000     0.210860000000     0.0475882  
H142     H      0.028440000000     0.492710000000     0.322300000000     0.0383348  
H143     H      0.923100000000     0.458670000000     0.332550000000     0.0446643  
H144     H      0.957750000000     0.550250000000     0.129960000000     0.0535618  
H145     H      0.027760000000     0.453420000000     0.371740000000     0.0564261  
H146     H      0.942030000000     0.446760000000     0.166860000000     0.0400957  
H147     H      0.992590000000     0.544500000000     0.182560000000     0.0397342  
H148     H      0.953270000000     0.450880000000     0.102460000000     0.0480417  
H149     H      0.927750000000     0.467690000000     0.398360000000     0.0563458  
H150     H      0.009940000000     0.438010000000     0.273590000000     0.0514764  
H151     H      0.034050000000     0.497460000000     0.386830000000     0.0432315  
H152     H      0.930640000000     0.530510000000     0.228720000000     0.0496158  
H153     H      0.995950000000     0.521160000000     0.341390000000     0.0397324  
H154     H      0.003390000000     0.549800000000     0.118240000000     0.0502269  
H155     H      0.987740000000     0.451350000000     0.155430000000     0.0461194  
H156     H      0.017110000000     0.508150000000     0.165020000000     0.049794   
H157     H      0.936050000000     0.521570000000     0.291690000000     0.0441342  
H158     H      0.935600000000     0.501590000000     0.347200000000     0.0379606  
H159     H      0.924220000000     0.483820000000     0.118930000000     0.0465095  
H160     H      0.970980000000     0.396740000000     0.331770000000     0.154753   
H161     H      0.300020000000     0.992890000000     0.543310000000     0.0443565  
H162     H      0.175490000000     0.036730000000     0.565120000000     0.0400891  
H163     H      0.184610000000     0.983730000000     0.468150000000     0.0430633  
H164     H      0.379290000000     0.076190000000     0.467880000000     0.041396   
H165     H      0.132360000000     0.990390000000     0.567400000000     0.0631102  
H166     H      0.324920000000     0.979660000000     0.467260000000     0.0394071  
H167     H      0.336100000000     0.079640000000     0.514360000000     0.0375948  
H168     H      0.390040000000     0.973990000000     0.462230000000     0.0449242  
H169     H      0.119030000000     0.979060000000     0.464760000000     0.0564647  
H170     H      0.237740000000     0.982360000000     0.554590000000     0.0536022  
H171     H      0.109490000000     0.031110000000     0.562130000000     0.0443156  
H172     H      0.272770000000     0.066840000000     0.462610000000     0.0472674  
H173     H      0.156640000000     0.055590000000     0.526240000000     0.0389471  
H174     H      0.401560000000     0.075110000000     0.509280000000     0.0429058  
H175     H      0.347600000000     0.983140000000     0.508510000000     0.0409944  
H176     H      0.353690000000     0.041630000000     0.536200000000     0.0410014  
H177     H      0.210550000000     0.058750000000     0.476210000000     0.0436426  
H178     H      0.161150000000     0.024460000000     0.470570000000     0.0379253  
H179     H      0.371910000000     0.008920000000     0.436750000000     0.039966   
H180     H      0.193330000000     0.931810000000     0.523700000000     0.153684   
H181     H      0.713020000000     0.941390000000     0.522200000000     0.0463063  
H182     H      0.837660000000     0.950390000000     0.443970000000     0.0407145  
H183     H      0.826170000000     0.982540000000     0.549500000000     0.0487889  
H184     H      0.625780000000     0.974350000000     0.434750000000     0.0520972  
H185     H      0.884610000000     0.921840000000     0.475200000000     0.0552437  
H186     H      0.686320000000     0.038420000000     0.505120000000     0.0419567  
H187     H      0.671860000000     0.938700000000     0.458490000000     0.0406412  
H188     H      0.621180000000     0.045390000000     0.510790000000     0.0548796  
H189     H      0.891530000000     0.988560000000     0.554440000000     0.0641075  
H190     H      0.775600000000     0.929800000000     0.528170000000     0.049836   
H191     H      0.903030000000     0.955820000000     0.448860000000     0.0471054  
H192     H      0.735360000000     0.024170000000     0.448800000000     0.0500206  
H193     H      0.852810000000     0.993230000000     0.457180000000     0.0467324  
H194     H      0.606510000000     0.944850000000     0.465600000000     0.053823   
H195     H      0.665900000000     0.003530000000     0.529440000000     0.0480041  
H196     H      0.657330000000     0.946300000000     0.502750000000     0.0420294  
H197     H      0.798030000000     0.014720000000     0.457250000000     0.0486034  
H198     H      0.845670000000     0.011570000000     0.518190000000     0.0547723  
H199     H      0.636750000000     0.044780000000     0.466520000000     0.0457033  
H200     H      0.830260000000     0.898200000000     0.546320000000     0.154719   
H201     H      0.037740000000     0.690380000000     0.546900000000     0.0446135  
H202     H      0.041750000000     0.809600000000     0.472910000000     0.0418638  
H203     H      0.995270000000     0.811540000000     0.573690000000     0.0475158  
H204     H      0.012500000000     0.614150000000     0.447280000000     0.0390948  
H205     H      0.069960000000     0.855910000000     0.505400000000     0.0718082  
H206     H      0.943610000000     0.660650000000     0.520580000000     0.0377493  
H207     H      0.045920000000     0.658870000000     0.477110000000     0.0386446  
H208     H      0.940830000000     0.595200000000     0.517960000000     0.0422521  
H209     H      0.993780000000     0.877900000000     0.571070000000     0.0661913  
H210     H      0.049660000000     0.752430000000     0.557020000000     0.0497817  
H211     H      0.044030000000     0.874690000000     0.471390000000     0.0533788  
H212     H      0.958230000000     0.717950000000     0.471670000000     0.047754   
H213     H      0.999280000000     0.829840000000     0.478320000000     0.0417351  
H214     H      0.044420000000     0.593360000000     0.474620000000     0.043732   
H215     H      0.978690000000     0.639960000000     0.544510000000     0.0413555  
H216     H      0.038380000000     0.638350000000     0.519010000000     0.0407912  
H217     H      0.967670000000     0.779990000000     0.484540000000     0.045924   
H218     H      0.971840000000     0.829690000000     0.537280000000     0.0474385  
H219     H      0.944140000000     0.615650000000     0.475730000000     0.0411499  
H220     H      0.075400000000     0.808290000000     0.581490000000     0.153329   
H221     H      0.951930000000     0.272930000000     0.465390000000     0.0490582  
H222     H      0.008210000000     0.155560000000     0.445730000000     0.03952    
H223     H      0.957570000000     0.157370000000     0.544450000000     0.0449439  
H224     H      0.044410000000     0.357740000000     0.526760000000     0.0530245  
H225     H      0.970150000000     0.104630000000     0.447660000000     0.0580587  
H226     H      0.943830000000     0.310550000000     0.531430000000     0.0418017  
H227     H      0.044990000000     0.309650000000     0.485500000000     0.04013    
H228     H      0.942460000000     0.376260000000     0.527920000000     0.0510069  
H229     H      0.967340000000     0.092310000000     0.550210000000     0.0585744  
H230     H      0.945200000000     0.209460000000     0.459420000000     0.0522348  
H231     H      0.014950000000     0.090390000000     0.449600000000     0.0429924  
H232     H      0.035150000000     0.257010000000     0.540000000000     0.0503167  
H233     H      0.032030000000     0.141720000000     0.484030000000     0.039554   
H234     H      0.044960000000     0.375120000000     0.483110000000     0.0499517  
H235     H      0.949810000000     0.327850000000     0.487890000000     0.0491414  
H236     H      0.008320000000     0.327090000000     0.461400000000     0.0520576  
H237     H      0.030630000000     0.193700000000     0.531440000000     0.0442941  
H238     H      0.002210000000     0.142700000000     0.541770000000     0.0395352  
H239     H      0.974740000000     0.359100000000     0.557270000000     0.0531558  
H240     H      0.904750000000     0.151360000000     0.488690000000     0.154554   
N1       N      0.890090000000     0.516010000000     0.990810000000    -0.160297   
N2       N      0.816620000000     0.518770000000     0.992230000000    -0.106187   
N3       N      0.667900000000     0.532260000000     0.982210000000    -0.112516   
N4       N      0.594560000000     0.523890000000     0.980730000000    -0.167035   
N5       N      0.098480000000     0.499790000000     0.019120000000    -0.160789   
N6       N      0.171940000000     0.491620000000     0.018880000000    -0.105425   
N7       N      0.316460000000     0.468400000000     0.987570000000    -0.112637   
N8       N      0.389750000000     0.472670000000     0.980320000000    -0.167238   
N9       N      0.484200000000     0.895930000000     0.006810000000    -0.160271   
N10      N      0.478120000000     0.822410000000     0.013850000000    -0.105218   
N11      N      0.460420000000     0.674580000000     0.994920000000    -0.112417   
N12      N      0.467570000000     0.601280000000     0.987640000000    -0.166641   
N13      N      0.494710000000     0.101410000000     0.958000000000    -0.159624   
N14      N      0.501760000000     0.174860000000     0.950620000000    -0.108588   
N15      N      0.522660000000     0.322630000000     0.966790000000    -0.112606   
N16      N      0.516640000000     0.396070000000     0.973600000000    -0.166725   
N17      N      0.503730000000     0.999810000000     0.587690000000    -0.159635   
N18      N      0.501320000000     0.990820000000     0.660870000000    -0.109236   
N19      N      0.478920000000     0.970370000000     0.807200000000    -0.112551   
N20      N      0.478750000000     0.974130000000     0.880770000000    -0.165622   
N21      N      0.511570000000     0.023820000000     0.378450000000    -0.160328   
N22      N      0.519340000000     0.029810000000     0.305440000000    -0.105072   
N23      N      0.507520000000     0.037520000000     0.156580000000    -0.111962   
N24      N      0.500100000000     0.023610000000     0.084480000000    -0.164247   
N25      N      0.003500000000     0.491700000000     0.606180000000    -0.160636   
N26      N      0.008900000000     0.493070000000     0.679290000000    -0.111056   
N27      N      0.023520000000     0.511560000000     0.826500000000    -0.112671   
N28      N      0.015460000000     0.512450000000     0.899600000000    -0.167383   
N29      N      0.983510000000     0.474730000000     0.397470000000    -0.160613   
N30      N      0.976860000000     0.471460000000     0.324320000000    -0.110609   
N31      N      0.963860000000     0.496910000000     0.177950000000    -0.111244   
N32      N      0.974160000000     0.503410000000     0.105450000000    -0.160838   
N33      N      0.110470000000     0.997590000000     0.517140000000    -0.159198   
N34      N      0.183590000000     0.007210000000     0.518750000000    -0.109373   
N35      N      0.326730000000     0.031270000000     0.488450000000    -0.112643   
N36      N      0.399990000000     0.026490000000     0.480890000000    -0.166819   
N37      N      0.902140000000     0.965460000000     0.504440000000    -0.157169   
N38      N      0.828510000000     0.962730000000     0.497470000000    -0.10764    
N39      N      0.682480000000     0.989880000000     0.477940000000    -0.111747   
N40      N      0.609320000000     0.999010000000     0.481330000000    -0.162776   
N41      N      0.024000000000     0.880650000000     0.523990000000    -0.155897   
N42      N      0.021200000000     0.807000000000     0.524630000000    -0.109203   
N43      N      0.993670000000     0.663530000000     0.496220000000    -0.112638   
N44      N      0.990580000000     0.590160000000     0.491880000000    -0.167541   
N45      N      0.985750000000     0.086180000000     0.497440000000    -0.160672   
N46      N      0.979860000000     0.159640000000     0.493390000000    -0.110204   
N47      N      0.995950000000     0.306760000000     0.511840000000    -0.110603   
N48      N      0.996320000000     0.380320000000     0.511100000000    -0.159987   
O1       O      0.000490000000     0.032360000000     0.475240000000    -0.395139   
O2       O      0.017520000000     0.928540000000     0.488680000000    -0.394735   
O3       O      0.956280000000     0.971090000000     0.478690000000    -0.393986   
O4       O      0.060700000000     0.988220000000     0.485270000000    -0.396226   
O5       O      0.055920000000     0.996790000000     0.542670000000    -0.387322   
O6       O      0.951390000000     0.978070000000     0.536270000000    -0.384847   
O7       O      0.011870000000     0.935060000000     0.546270000000    -0.379208   
O8       O      0.993780000000     0.038580000000     0.532750000000    -0.397498   
O9       O      0.965970000000     0.432130000000     0.510730000000    -0.390073   
O10      O      0.962840000000     0.537550000000     0.499640000000    -0.399629   
O11      O      0.959280000000     0.478650000000     0.452300000000    -0.390942   
O12      O      0.969510000000     0.490730000000     0.556950000000    -0.39744    
O13      O      0.027590000000     0.488610000000     0.551270000000    -0.390823   
O14      O      0.017220000000     0.482560000000     0.446250000000    -0.398719   
O15      O      0.021040000000     0.538560000000     0.494710000000    -0.400499   
O16      O      0.023610000000     0.432840000000     0.501450000000    -0.389542   
O17      O      0.553470000000     0.977060000000     0.478400000000    -0.387593   
O18      O      0.448270000000     0.990870000000     0.479070000000    -0.398654   
O19      O      0.501380000000     0.990220000000     0.426960000000    -0.387937   
O20      O      0.500760000000     0.977390000000     0.531990000000    -0.396262   
O21      O      0.505760000000     0.035060000000     0.539190000000    -0.385478   
O22      O      0.511370000000     0.047270000000     0.433920000000    -0.394096   
O23      O      0.455720000000     0.048400000000     0.485680000000    -0.396792   
O24      O      0.561030000000     0.034060000000     0.488460000000    -0.387124   
O25      O      0.463490000000     0.052830000000     0.974710000000    -0.387064   
O26      O      0.457760000000     0.949030000000     0.996660000000    -0.391355   
O27      O      0.465910000000     0.011250000000     0.036870000000    -0.392417   
O28      O      0.455230000000     0.990670000000     0.933440000000    -0.389409   
O29      O      0.512910000000     0.982680000000     0.929180000000    -0.396916   
O30      O      0.523970000000     0.010270000000     0.030950000000    -0.393778   
O31      O      0.515900000000     0.945120000000     0.993030000000    -0.394212   
O32      O      0.520960000000     0.047790000000     0.965970000000    -0.395704   
O33      O      0.980370000000     0.476930000000     0.052170000000    -0.393474   
O34      O      0.004770000000     0.481250000000     0.949520000000    -0.400117   
O35      O      0.044170000000     0.474810000000     0.012470000000    -0.39235    
O36      O      0.940710000000     0.483540000000     0.989630000000    -0.394968   
O37      O      0.944100000000     0.541060000000     0.998930000000    -0.389467   
O38      O      0.049290000000     0.532870000000     0.009610000000    -0.396369   
O39      O      0.002690000000     0.539550000000     0.951520000000    -0.3976     
O40      O      0.990790000000     0.534180000000     0.056740000000    -0.385286   
O41      O      0.505610000000     0.445360000000     0.006070000000    -0.39663    
O42      O      0.478120000000     0.547850000000     0.013160000000    -0.39617    
O43      O      0.441270000000     0.482320000000     0.009340000000    -0.398601   
O44      O      0.543550000000     0.510870000000     0.009830000000    -0.39649    
O45      O      0.543680000000     0.511390000000     0.951620000000    -0.398502   
O46      O      0.439670000000     0.489830000000     0.951620000000    -0.396393   
O47      O      0.481130000000     0.552560000000     0.955240000000    -0.396795   
O48      O      0.503300000000     0.448820000000     0.948010000000    -0.396292   
O49      O      0.855400000000     0.502660000000     0.063660000000    -0.274358   
O50      O      0.844660000000     0.572820000000     0.069880000000    -0.181522   
O51      O      0.910490000000     0.547530000000     0.069370000000    -0.177943   
O52      O      0.147570000000     0.498710000000     0.092170000000    -0.27436    
O53      O      0.124750000000     0.431320000000     0.096800000000    -0.181948   
O54      O      0.077800000000     0.484250000000     0.095630000000    -0.177277   
O55      O      0.486410000000     0.854450000000     0.084170000000    -0.274015   
O56      O      0.418210000000     0.874900000000     0.088200000000    -0.181302   
O57      O      0.469100000000     0.923580000000     0.081360000000    -0.17722    
O58      O      0.460840000000     0.146250000000     0.891030000000    -0.270937   
O59      O      0.400900000000     0.145160000000     0.929820000000    -0.185421   
O60      O      0.430630000000     0.084590000000     0.909480000000    -0.164795   
O61      O      0.572850000000     0.012620000000     0.635940000000    -0.270302   
O62      O      0.549720000000     0.079850000000     0.642850000000    -0.185401   
O63      O      0.567080000000     0.055090000000     0.579430000000    -0.163312   
O64      O      0.579850000000     0.993590000000     0.336840000000    -0.274926   
O65      O      0.542780000000     0.933140000000     0.329790000000    -0.183736   
O66      O      0.559850000000     0.956490000000     0.394060000000    -0.174706   
O67      O      0.002120000000     0.418730000000     0.650790000000    -0.270575   
O68      O      0.073000000000     0.417930000000     0.642150000000    -0.18448    
O69      O      0.030810000000     0.415200000000     0.586000000000    -0.16781    
O70      O      0.983350000000     0.398780000000     0.354420000000    -0.27025    
O71      O      0.914150000000     0.396990000000     0.371890000000    -0.183861   
O72      O      0.963080000000     0.399340000000     0.422410000000    -0.167607   
O73      O      0.170400000000     0.933780000000     0.535620000000    -0.261932   
O74      O      0.155180000000     0.913230000000     0.469130000000    -0.184097   
O75      O      0.103820000000     0.917520000000     0.517040000000    -0.155353   
O76      O      0.853480000000     0.899310000000     0.534880000000    -0.271596   
O77      O      0.857320000000     0.934720000000     0.596670000000    -0.181132   
O78      O      0.916360000000     0.912420000000     0.565330000000    -0.163054   
O79      O      0.080730000000     0.830630000000     0.569490000000    -0.261769   
O80      O      0.038130000000     0.846600000000     0.624370000000    -0.178903   
O81      O      0.070250000000     0.898250000000     0.588900000000    -0.143648   
O82      O      0.909940000000     0.128080000000     0.478520000000    -0.26965    
O83      O      0.895210000000     0.114670000000     0.546880000000    -0.182484   
O84      O      0.908830000000     0.061310000000     0.503010000000    -0.169925   
S1       S      0.870690000000     0.542520000000     0.052990000000     0.286741   
S2       S      0.115970000000     0.470450000000     0.080320000000     0.285913   
S3       S      0.456610000000     0.883610000000     0.070040000000     0.286154   
S4       S      0.438710000000     0.125110000000     0.922630000000     0.28713    
S5       S      0.549120000000     0.044750000000     0.617410000000     0.287764   
S6       S      0.548100000000     0.968560000000     0.354200000000     0.286601   
S7       S      0.035550000000     0.432160000000     0.625510000000     0.286763   
S8       S      0.952900000000     0.413230000000     0.382710000000     0.286251   
S9       S      0.140670000000     0.935630000000     0.503250000000     0.287874   
S10      S      0.876640000000     0.928410000000     0.558430000000     0.287118   
S11      S      0.051320000000     0.859410000000     0.585180000000     0.291421   
S12      S      0.919080000000     0.102260000000     0.512930000000     0.285827   


