data_structure

_audit_creation_method RASPA-1.0
_audit_creation_date 2023-5-25
_audit_author_name 'Poobodin Mano'

_cell_length_a    38.3257
_cell_length_b    38.0805
_cell_length_c    38.3417
_cell_angle_alpha 90
_cell_angle_beta  90
_cell_angle_gamma 90
_cell_volume      55958.2

_symmetry_cell_setting          triclinic
_symmetry_space_group_name_Hall 'P 1'
_symmetry_space_group_name_H-M  'P 1'
_symmetry_Int_Tables_number     1

_symmetry_equiv_pos_as_xyz 'x,y,z'

loop_
_atom_site_label
_atom_site_type_symbol
_atom_site_fract_x
_atom_site_fract_y
_atom_site_fract_z
_atom_site_charge
C1       C      0.014810000000     0.069500000000     0.492350000000     0.402027   
C2       C      0.981170000000     0.934020000000     0.501040000000     0.399495   
C3       C      0.930650000000     0.018460000000     0.495090000000     0.399208   
C4       C      0.065720000000     0.984660000000     0.498340000000     0.398537   
C5       C      0.992870000000     0.433110000000     0.478850000000     0.403722   
C6       C      0.984820000000     0.569090000000     0.510480000000     0.398867   
C7       C      0.982980000000     0.516900000000     0.427280000000     0.402883   
C8       C      0.994450000000     0.485560000000     0.562150000000     0.401802   
C9       C      0.566660000000     0.016560000000     0.501880000000     0.401992   
C10      C      0.429330000000     0.998040000000     0.488670000000     0.399322   
C11      C      0.505020000000     0.009900000000     0.426140000000     0.402662   
C12      C      0.492090000000     0.004520000000     0.564360000000     0.398925   
C13      C      0.499700000000     0.009770000000     0.062760000000     0.399811   
C14      C      0.478790000000     0.988090000000     0.927130000000     0.403272   
C15      C      0.497190000000     0.067520000000     0.983460000000     0.399216   
C16      C      0.481370000000     0.930280000000     0.005060000000     0.400455   
C17      C      0.066610000000     0.484830000000     0.996510000000     0.402441   
C18      C      0.928480000000     0.498500000000     0.996280000000     0.400562   
C19      C      0.998130000000     0.497560000000     0.064850000000     0.401382   
C20      C      0.998220000000     0.485360000000     0.926440000000     0.39896    
C21      C      0.515200000000     0.430500000000     0.000010000000     0.401988   
C22      C      0.478250000000     0.565260000000     0.005510000000     0.39987    
C23      C      0.429790000000     0.479570000000     0.999600000000     0.401038   
C24      C      0.564010000000     0.514510000000     0.006030000000     0.400979   
C25      C      0.655970000000     0.520520000000     0.041140000000    -0.0256352  
C26      C      0.838580000000     0.534350000000     0.983970000000    -0.0303512  
C27      C      0.872770000000     0.474010000000     0.016220000000    -0.00703496 
C28      C      0.877140000000     0.537130000000     0.993930000000    -0.00595977 
C29      C      0.763870000000     0.493940000000     0.981900000000    -0.0543446  
C30      C      0.729450000000     0.538460000000     0.028650000000    -0.0562479  
C31      C      0.783360000000     0.513450000000     0.006270000000     0.0619782  
C32      C      0.834370000000     0.474890000000     0.005810000000    -0.0299307  
C33      C      0.709880000000     0.516600000000     0.006370000000     0.0651342  
C34      C      0.656020000000     0.538420000000     0.980880000000    -0.00599927 
C35      C      0.727500000000     0.495020000000     0.982560000000    -0.0523363  
C36      C      0.618720000000     0.525490000000     0.974340000000    -0.0552337  
C37      C      0.617810000000     0.508850000000     0.039860000000    -0.00555249 
C38      C      0.765850000000     0.536310000000     0.028950000000    -0.0524968  
C39      C      0.619620000000     0.492280000000     0.952700000000     0.31846    
C40      C      0.161140000000     0.509100000000     0.994190000000    -0.0240565  
C41      C      0.337380000000     0.478470000000     0.024360000000    -0.0303744  
C42      C      0.380140000000     0.455500000000     0.965870000000    -0.00729431 
C43      C      0.375000000000     0.467230000000     0.030770000000    -0.00595931 
C44      C      0.268210000000     0.485950000000     0.972470000000    -0.0536814  
C45      C      0.229510000000     0.445490000000     0.019360000000    -0.0523501  
C46      C      0.285390000000     0.461180000000     0.993770000000     0.0619827  
C47      C      0.341620000000     0.465730000000     0.962520000000    -0.0301285  
C48      C      0.212310000000     0.470110000000     0.998340000000     0.0651895  
C49      C      0.155320000000     0.446710000000     0.984020000000    -0.00562529 
C50      C      0.231950000000     0.489570000000     0.973940000000    -0.0554273  
C51      C      0.117780000000     0.445820000000     0.997890000000    -0.0554033  
C52      C      0.123630000000     0.512400000000     0.007290000000    -0.00807129 
C53      C      0.265470000000     0.440680000000     0.016700000000    -0.0518673  
C54      C      0.116760000000     0.430010000000     0.034030000000     0.318129   
C55      C      0.445140000000     0.841900000000     0.029120000000    -0.0261275  
C56      C      0.461640000000     0.653570000000     0.042750000000    -0.0301663  
C57      C      0.465710000000     0.620450000000     0.974300000000    -0.0064596  
C58      C      0.452700000000     0.614560000000     0.038900000000    -0.00727674 
C59      C      0.433190000000     0.730180000000     0.991560000000    -0.0525196  
C60      C      0.483910000000     0.764410000000     0.031350000000    -0.0558703  
C61      C      0.455820000000     0.710240000000     0.012380000000     0.0617184  
C62      C      0.475130000000     0.658820000000     0.981140000000    -0.0303333  
C63      C      0.462350000000     0.784080000000     0.008860000000     0.0648535  
C64      C      0.502460000000     0.834010000000     0.004120000000    -0.00390931 
C65      C      0.436640000000     0.766630000000     0.989560000000    -0.0522378  
C66      C      0.504120000000     0.871870000000     0.990660000000    -0.0574407  
C67      C      0.442680000000     0.880020000000     0.016550000000    -0.00543395 
C68      C      0.481420000000     0.727790000000     0.032260000000    -0.0538704  
C69      C      0.500280000000     0.872590000000     0.951430000000     0.315052   
C70      C      0.542220000000     0.153240000000     0.973130000000    -0.0249836  
C71      C      0.510520000000     0.336490000000     0.018900000000    -0.0303464  
C72      C      0.544170000000     0.382160000000     0.968050000000    -0.00705973 
C73      C      0.522400000000     0.373320000000     0.029640000000    -0.00635998 
C74      C      0.502460000000     0.273210000000     0.962160000000    -0.0541913  
C75      C      0.542310000000     0.225570000000     0.000810000000    -0.0563118  
C76      C      0.528080000000     0.285860000000     0.985350000000     0.0619183  
C77      C      0.532130000000     0.344810000000     0.959760000000    -0.030047   
C78      C      0.518090000000     0.212920000000     0.976150000000     0.0649966  
C79      C      0.483570000000     0.163260000000     0.994660000000    -0.00438271 
C80      C      0.498130000000     0.237140000000     0.957180000000    -0.0522513  
C81      C      0.471170000000     0.126740000000     0.982930000000    -0.0560885  
C82      C      0.533200000000     0.116200000000     0.960620000000    -0.00693252 
C83      C      0.547640000000     0.261660000000     0.004740000000    -0.052289   
C84      C      0.449600000000     0.129120000000     0.950030000000     0.314373   
C85      C      0.487340000000     0.966720000000     0.654140000000    -0.0249627  
C86      C      0.447780000000     0.004860000000     0.838350000000    -0.03025    
C87      C      0.498220000000     0.959270000000     0.872860000000    -0.00728    
C88      C      0.440470000000     0.991190000000     0.875290000000    -0.00650421 
C89      C      0.495610000000     0.012500000000     0.769690000000    -0.0543471  
C90      C      0.454360000000     0.974220000000     0.723060000000    -0.0559362  
C91      C      0.471900000000     0.987370000000     0.782570000000     0.0625235  
C92      C      0.503330000000     0.973720000000     0.836130000000    -0.0293789  
C93      C      0.480520000000     0.996760000000     0.710130000000     0.0648056  
C94      C      0.466440000000     0.026640000000     0.655980000000    -0.00513644 
C95      C      0.500250000000     0.016570000000     0.733780000000    -0.0517087  
C96      C      0.482210000000     0.035400000000     0.620090000000    -0.055995   
C97      C      0.503790000000     0.971550000000     0.618210000000    -0.00652392 
C98      C      0.450660000000     0.969150000000     0.758980000000    -0.0522383  
C99      C      0.514590000000     0.057630000000     0.624260000000     0.316791   
C100     C      0.494770000000     0.038530000000     0.333760000000    -0.0261591  
C101     C      0.478260000000     0.024900000000     0.155720000000    -0.0298676  
C102     C      0.539810000000     0.010990000000     0.113140000000    -0.00635635 
C103     C      0.478650000000     0.036270000000     0.117530000000    -0.00733214 
C104     C      0.538040000000     0.043260000000     0.226170000000    -0.0527891  
C105     C      0.497130000000     0.994110000000     0.261700000000    -0.0559186  
C106     C      0.515540000000     0.021400000000     0.207280000000     0.0619341  
C107     C      0.536540000000     0.000250000000     0.151520000000    -0.0303606  
C108     C      0.519920000000     0.016070000000     0.280610000000     0.0651751  
C109     C      0.520910000000     0.980700000000     0.334110000000    -0.00416956 
C110     C      0.540370000000     0.040460000000     0.262420000000    -0.0521997  
C111     C      0.529740000000     0.982910000000     0.373180000000    -0.0564857  
C112     C      0.503320000000     0.044800000000     0.372190000000    -0.00469804 
C113     C      0.495750000000     0.996040000000     0.225310000000    -0.0539533  
C114     C      0.568460000000     0.988140000000     0.378370000000     0.31357    
C115     C      0.973930000000     0.488060000000     0.656250000000    -0.0264041  
C116     C      0.001460000000     0.443770000000     0.837920000000    -0.0297144  
C117     C      0.001210000000     0.513770000000     0.868950000000    -0.00579499 
C118     C      0.012130000000     0.447950000000     0.876130000000    -0.00744634 
C119     C      0.983760000000     0.450240000000     0.763960000000    -0.0544247  
C120     C      0.028310000000     0.492050000000     0.723780000000    -0.0557181  
C121     C      0.007890000000     0.472540000000     0.780730000000     0.0619422  
C122     C      0.989920000000     0.505820000000     0.831510000000    -0.0305679  
C123     C      0.005480000000     0.468390000000     0.707040000000     0.0654726  
C124     C      0.034880000000     0.472490000000     0.649860000000    -0.0037842  
C125     C      0.983250000000     0.447710000000     0.727610000000    -0.0518388  
C126     C      0.030200000000     0.463100000000     0.611030000000    -0.0566385  
C127     C      0.965490000000     0.477350000000     0.618830000000    -0.00516208 
C128     C      0.029930000000     0.493410000000     0.760160000000    -0.0516169  
C129     C      0.031050000000     0.423810000000     0.605780000000     0.312199   
C130     C      0.977420000000     0.480710000000     0.158070000000    -0.0258455  
C131     C      0.013920000000     0.531950000000     0.338420000000    -0.0311341  
C132     C      0.947680000000     0.518180000000     0.373250000000    -0.00468568 
C133     C      0.007480000000     0.546030000000     0.375130000000    -0.00477279 
C134     C      0.007980000000     0.495780000000     0.270370000000    -0.0548023  
C135     C      0.969220000000     0.535470000000     0.222790000000    -0.0557584  
C136     C      0.984880000000     0.521750000000     0.282710000000     0.0628754  
C137     C      0.956390000000     0.504710000000     0.336570000000    -0.0312201  
C138     C      0.994460000000     0.511570000000     0.210430000000     0.06462    
C139     C      0.002140000000     0.539060000000     0.153130000000    -0.00337216 
C140     C      0.013130000000     0.491320000000     0.234570000000    -0.0503585  
C141     C      0.016170000000     0.531910000000     0.116250000000    -0.0574783  
C142     C      0.991450000000     0.469710000000     0.122370000000    -0.00598757 
C143     C      0.965050000000     0.540880000000     0.258600000000    -0.0526545  
C144     C      0.055310000000     0.527250000000     0.116810000000     0.31532    
C145     C      0.334460000000     0.013130000000     0.502310000000    -0.025938   
C146     C      0.153680000000     0.967680000000     0.463660000000    -0.030107   
C147     C      0.121090000000     0.980110000000     0.531250000000    -0.00665105 
C148     C      0.116140000000     0.955750000000     0.470080000000    -0.00729888 
C149     C      0.224640000000     0.997580000000     0.469150000000    -0.0546335  
C150     C      0.269820000000     0.956400000000     0.509260000000    -0.0558107  
C151     C      0.210690000000     0.972390000000     0.492200000000     0.0617234  
C152     C      0.158410000000     0.991580000000     0.522300000000    -0.0304551  
C153     C      0.283760000000     0.979970000000     0.484540000000     0.0647317  
C154     C      0.342340000000     0.953170000000     0.483030000000    -0.00380801 
C155     C      0.260730000000     0.000700000000     0.464940000000    -0.0515481  
C156     C      0.380010000000     0.960210000000     0.470740000000    -0.0574411  
C157     C      0.370580000000     0.024110000000     0.489430000000    -0.00598202 
C158     C      0.233680000000     0.952290000000     0.512470000000    -0.0521478  
C159     C      0.381790000000     0.961130000000     0.431400000000     0.313657   
C160     C      0.838180000000     0.019180000000     0.522700000000    -0.0260779  
C161     C      0.660760000000     0.993910000000     0.505960000000    -0.0303894  
C162     C      0.617300000000     0.056640000000     0.501700000000    -0.00573267 
C163     C      0.623640000000     0.992970000000     0.520550000000    -0.00595383 
C164     C      0.731050000000     0.057880000000     0.520920000000    -0.0527346  
C165     C      0.766520000000     0.013040000000     0.475380000000    -0.0549615  
C166     C      0.712170000000     0.032530000000     0.502310000000     0.0622331  
C167     C      0.654540000000     0.054420000000     0.487260000000    -0.030073   
C168     C      0.785430000000     0.038410000000     0.494410000000     0.0647193  
C169     C      0.840090000000     0.031610000000     0.460820000000    -0.00380414 
C170     C      0.767120000000     0.061050000000     0.516720000000    -0.0516207  
C171     C      0.879450000000     0.040180000000     0.462030000000    -0.0573485  
C172     C      0.876400000000     0.029240000000     0.527730000000    -0.00597487 
C173     C      0.730180000000     0.010870000000     0.478480000000    -0.0539798  
C174     C      0.885470000000     0.079230000000     0.458750000000     0.312832   
C175     C      0.944720000000     0.656760000000     0.521370000000    -0.0250586  
C176     C      0.983540000000     0.839580000000     0.481080000000    -0.0307156  
C177     C      0.956130000000     0.885310000000     0.535540000000    -0.00716203 
C178     C      0.971940000000     0.876930000000     0.471920000000    -0.00631996 
C179     C      0.990880000000     0.774040000000     0.537990000000    -0.0542326  
C180     C      0.949350000000     0.729780000000     0.497190000000    -0.0563887  
C181     C      0.966350000000     0.788780000000     0.514800000000     0.0614618  
C182     C      0.967610000000     0.847400000000     0.541920000000    -0.030117   
C183     C      0.972340000000     0.715080000000     0.521920000000     0.064897   
C184     C      0.005480000000     0.663790000000     0.504970000000    -0.00407304 
C185     C      0.993180000000     0.737650000000     0.541950000000    -0.0525935  
C186     C      0.014640000000     0.626210000000     0.516520000000    -0.0556856  
C187     C      0.950630000000     0.619000000000     0.533560000000    -0.00692691 
C188     C      0.945950000000     0.766200000000     0.494340000000    -0.0522328  
C189     C      0.033280000000     0.626190000000     0.551250000000     0.313585   
C190     C      0.977100000000     0.338380000000     0.488480000000    -0.0266011  
C191     C      0.024800000000     0.156130000000     0.451090000000    -0.0309199  
C192     C      0.020840000000     0.127140000000     0.521330000000    -0.00535898 
C193     C      0.038840000000     0.119220000000     0.458310000000    -0.00549655 
C194     C      0.994390000000     0.227250000000     0.454900000000    -0.0545464  
C195     C      0.034340000000     0.275320000000     0.492920000000    -0.0560542  
C196     C      0.020850000000     0.214890000000     0.477310000000     0.0626733  
C197     C      0.006710000000     0.163380000000     0.511460000000    -0.0305362  
C198     C      0.009490000000     0.287740000000     0.468780000000     0.0659291  
C199     C      0.034420000000     0.346760000000     0.462700000000    -0.00376849 
C200     C      0.989360000000     0.263310000000     0.450250000000    -0.0510872  
C201     C      0.025580000000     0.384470000000     0.451300000000    -0.0557021  
C202     C      0.964910000000     0.374780000000     0.476760000000    -0.00466407 
C203     C      0.040350000000     0.239320000000     0.496500000000    -0.0514293  
C204     C      0.018590000000     0.386340000000     0.412570000000     0.311572   
Cu1      Cu     0.998650000000     0.999490000000     0.464550000000     0.843236   
Cu2      Cu     0.997790000000     0.003900000000     0.528760000000     0.843656   
Cu3      Cu     0.956770000000     0.498600000000     0.497040000000     0.842403   
Cu4      Cu     0.020790000000     0.503580000000     0.492300000000     0.858517   
Cu5      Cu     0.502580000000     0.975160000000     0.494390000000     0.850871   
Cu6      Cu     0.493470000000     0.039290000000     0.495990000000     0.848887   
Cu7      Cu     0.520870000000     0.994380000000     0.990580000000     0.850682   
Cu8      Cu     0.457670000000     0.003570000000     0.999220000000     0.848764   
Cu9      Cu     0.000690000000     0.523740000000     0.992830000000     0.847401   
Cu10     Cu     0.994420000000     0.459430000000     0.998480000000     0.853597   
Cu11     Cu     0.495380000000     0.496180000000     0.034900000000     0.845547   
Cu12     Cu     0.498020000000     0.499510000000     0.970670000000     0.851208   
H1       H      0.780530000000     0.552270000000     0.047150000000     0.0453161  
H2       H      0.669710000000     0.504630000000     0.061270000000     0.036633   
H3       H      0.670890000000     0.538100000000     0.955890000000     0.0374141  
H4       H      0.874660000000     0.477430000000     0.044970000000     0.0387273  
H5       H      0.616860000000     0.479750000000     0.042280000000     0.0507555  
H6       H      0.827020000000     0.561160000000     0.985010000000     0.035661   
H7       H      0.819610000000     0.457030000000     0.023430000000     0.0366392  
H8       H      0.891050000000     0.552080000000     0.973230000000     0.0403517  
H9       H      0.604920000000     0.546130000000     0.959020000000     0.0627712  
H10      H      0.716840000000     0.556420000000     0.046490000000     0.0418864  
H11      H      0.604130000000     0.519660000000     0.063090000000     0.0407565  
H12      H      0.776510000000     0.477170000000     0.962980000000     0.0428992  
H13      H      0.657060000000     0.548600000000     0.049200000000     0.0350088  
H14      H      0.883370000000     0.447570000000     0.009970000000     0.042822   
H15      H      0.836020000000     0.524410000000     0.956750000000     0.0394568  
H16      H      0.832040000000     0.464800000000     0.978660000000     0.038261   
H17      H      0.712830000000     0.478790000000     0.964570000000     0.0532846  
H18      H      0.655590000000     0.566160000000     0.990120000000     0.0340259  
H19      H      0.879370000000     0.552390000000     0.018570000000     0.0407754  
H20      H      0.626480000000     0.439420000000     0.954770000000     0.178025   
H21      H      0.278160000000     0.421700000000     0.033490000000     0.0468765  
H22      H      0.177170000000     0.529770000000     0.007020000000     0.0385164  
H23      H      0.167460000000     0.420390000000     0.987860000000     0.0371448  
H24      H      0.381970000000     0.426370000000     0.966520000000     0.0388615  
H25      H      0.124060000000     0.515370000000     0.036130000000     0.0631008  
H26      H      0.322420000000     0.473630000000     0.048790000000     0.0363615  
H27      H      0.329890000000     0.450660000000     0.940590000000     0.0363886  
H28      H      0.385920000000     0.483960000000     0.051900000000     0.0419909  
H29      H      0.102610000000     0.428450000000     0.980060000000     0.063993   
H30      H      0.214870000000     0.430010000000     0.038000000000     0.0534682  
H31      H      0.112320000000     0.537000000000     0.996510000000     0.0471295  
H32      H      0.282440000000     0.502670000000     0.954690000000     0.0415874  
H33      H      0.161310000000     0.513870000000     0.965530000000     0.0363537  
H34      H      0.394310000000     0.464650000000     0.942260000000     0.042832   
H35      H      0.336280000000     0.507140000000     0.018610000000     0.0409141  
H36      H      0.340330000000     0.494230000000     0.956190000000     0.0385488  
H37      H      0.219740000000     0.508300000000     0.956640000000     0.0419926  
H38      H      0.155130000000     0.451930000000     0.955420000000     0.0347762  
H39      H      0.375170000000     0.439560000000     0.040060000000     0.0397017  
H40      H      0.127490000000     0.439120000000     0.085130000000     0.181917   
H41      H      0.499790000000     0.713530000000     0.048260000000     0.0415189  
H42      H      0.418200000000     0.831080000000     0.030760000000     0.0364486  
H43      H      0.518970000000     0.816780000000     0.987380000000     0.0373021  
H44      H      0.438560000000     0.619180000000     0.964160000000     0.0400102  
H45      H      0.425160000000     0.881100000000     0.993460000000     0.0536363  
H46      H      0.445990000000     0.664710000000     0.064540000000     0.0359488  
H47      H      0.469940000000     0.673920000000     0.956810000000     0.0369456  
H48      H      0.461650000000     0.600450000000     0.062650000000     0.0422491  
H49      H      0.530620000000     0.881930000000     0.997270000000     0.0658887  
H50      H      0.503510000000     0.777000000000     0.047310000000     0.0419413  
H51      H      0.430380000000     0.896130000000     0.037410000000     0.0399531  
H52      H      0.413560000000     0.717200000000     0.975850000000     0.0463651  
H53      H      0.456780000000     0.840950000000     0.055730000000     0.0378567  
H54      H      0.483410000000     0.610140000000     0.953710000000     0.0429139  
H55      H      0.489800000000     0.655650000000     0.049560000000     0.0384268  
H56      H      0.503470000000     0.661110000000     0.987240000000     0.041107   
H57      H      0.419580000000     0.781350000000     0.972430000000     0.0510109  
H58      H      0.513700000000     0.833470000000     0.030900000000     0.0318937  
H59      H      0.423840000000     0.611860000000     0.037600000000     0.0383876  
H60      H      0.466180000000     0.865310000000     0.911530000000     0.178273   
H61      H      0.566730000000     0.270900000000     0.023440000000     0.0455628  
H62      H      0.563340000000     0.163920000000     0.956270000000     0.0375113  
H63      H      0.460900000000     0.181600000000     0.994590000000     0.0360405  
H64      H      0.572550000000     0.381450000000     0.974030000000     0.0407562  
H65      H      0.529120000000     0.116910000000     0.931930000000     0.0520228  
H66      H      0.511600000000     0.319290000000     0.042360000000     0.0357527  
H67      H      0.549420000000     0.333700000000     0.939220000000     0.0376335  
H68      H      0.503570000000     0.383890000000     0.049050000000     0.0416493  
H69      H      0.454120000000     0.116620000000     0.004220000000     0.0646897  
H70      H      0.557240000000     0.207860000000     0.017000000000     0.0422069  
H71      H      0.556010000000     0.098860000000     0.965540000000     0.0428726  
H72      H      0.485780000000     0.290920000000     0.947760000000     0.043164   
H73      H      0.552200000000     0.151350000000     0.000330000000     0.0367949  
H74      H      0.540680000000     0.398780000000     0.944480000000     0.0461276  
H75      H      0.482980000000     0.337400000000     0.009620000000     0.0405927  
H76      H      0.505080000000     0.346310000000     0.949330000000     0.0398465  
H77      H      0.478620000000     0.227900000000     0.938920000000     0.0538696  
H78      H      0.493360000000     0.161810000000     0.021990000000     0.0337549  
H79      H      0.548360000000     0.371310000000     0.042450000000     0.0403403  
H80      H      0.450050000000     0.144680000000     0.899340000000     0.179403   
H81      H      0.431580000000     0.950490000000     0.768510000000     0.0462716  
H82      H      0.502350000000     0.946280000000     0.668490000000     0.0374928  
H83      H      0.464980000000     0.051050000000     0.671960000000     0.0371473  
H84      H      0.487380000000     0.932250000000     0.870790000000     0.0448838  
H85      H      0.532520000000     0.974070000000     0.621390000000     0.0521883  
H86      H      0.422360000000     0.008740000000     0.824850000000     0.0377282  
H87      H      0.519110000000     0.954570000000     0.820880000000     0.0391397  
H88      H      0.426220000000     0.011790000000     0.890130000000     0.0463399  
H89      H      0.462340000000     0.051130000000     0.605700000000     0.0639587  
H90      H      0.437610000000     0.959630000000     0.705610000000     0.0423848  
H91      H      0.499070000000     0.947270000000     0.602810000000     0.0431082  
H92      H      0.511340000000     0.028150000000     0.787180000000     0.0440565  
H93      H      0.460120000000     0.957140000000     0.650620000000     0.0365852  
H94      H      0.524050000000     0.957160000000     0.885870000000     0.0516495  
H95      H      0.461290000000     0.030720000000     0.839840000000     0.0427724  
H96      H      0.518210000000     0.998730000000     0.838090000000     0.0411115  
H97      H      0.519700000000     0.034840000000     0.724260000000     0.0536234  
H98      H      0.439240000000     0.016850000000     0.652640000000     0.033887   
H99      H      0.423370000000     0.967670000000     0.873430000000     0.041953   
H100     H      0.564890000000     0.057370000000     0.640970000000     0.180048   
H101     H      0.478740000000     0.978140000000     0.211530000000     0.0422018  
H102     H      0.494130000000     0.064490000000     0.320420000000     0.0370549  
H103     H      0.539840000000     0.963040000000     0.320740000000     0.0381591  
H104     H      0.554970000000     0.035840000000     0.111560000000     0.0399878  
H105     H      0.526750000000     0.061930000000     0.373980000000     0.0529061  
H106     H      0.461330000000     0.043320000000     0.170610000000     0.0364588  
H107     H      0.563130000000     0.000200000000     0.163220000000     0.0366753  
H108     H      0.451950000000     0.032990000000     0.106670000000     0.0434786  
H109     H      0.522490000000     0.957070000000     0.384730000000     0.0698621  
H110     H      0.480420000000     0.975430000000     0.274800000000     0.0437564  
H111     H      0.481190000000     0.059270000000     0.384280000000     0.0429842  
H112     H      0.553750000000     0.062610000000     0.212700000000     0.0466744  
H113     H      0.468430000000     0.026400000000     0.331270000000     0.0409704  
H114     H      0.554740000000     0.990330000000     0.099060000000     0.041462   
H115     H      0.466680000000     0.998140000000     0.157250000000     0.0388303  
H116     H      0.525770000000     0.973140000000     0.153410000000     0.0401338  
H117     H      0.557760000000     0.057800000000     0.276540000000     0.0514183  
H118     H      0.494570000000     0.968650000000     0.331560000000     0.0361273  
H119     H      0.485070000000     0.064720000000     0.116350000000     0.0386275  
H120     H      0.608940000000     0.021350000000     0.369320000000     0.178768   
H121     H      0.048120000000     0.511280000000     0.772510000000     0.0457479  
H122     H      0.949890000000     0.484420000000     0.672160000000     0.035886   
H123     H      0.056720000000     0.456860000000     0.661110000000     0.0385477  
H124     H      0.028140000000     0.524640000000     0.868540000000     0.0410923  
H125     H      0.954060000000     0.450520000000     0.618950000000     0.0520307  
H126     H      0.015630000000     0.420840000000     0.826820000000     0.0370889  
H127     H      0.994890000000     0.529680000000     0.815470000000     0.0352782  
H128     H      0.001390000000     0.425430000000     0.891150000000     0.0434686  
H129     H      0.052960000000     0.474560000000     0.596990000000     0.0690685  
H130     H      0.045130000000     0.509370000000     0.709110000000     0.043682   
H131     H      0.945290000000     0.495630000000     0.608610000000     0.0420323  
H132     H      0.965480000000     0.434460000000     0.778600000000     0.0423031  
H133     H      0.981190000000     0.516370000000     0.657240000000     0.0406059  
H134     H      0.983720000000     0.534380000000     0.879790000000     0.0402327  
H135     H      0.972940000000     0.438240000000     0.836970000000     0.0379326  
H136     H      0.961400000000     0.500220000000     0.830640000000     0.0396221  
H137     H      0.964920000000     0.430000000000     0.715250000000     0.0497749  
H138     H      0.042290000000     0.500730000000     0.651330000000     0.0351101  
H139     H      0.041050000000     0.446310000000     0.877880000000     0.0398809  
H140     H      0.009150000000     0.377630000000     0.620800000000     0.178769   
H141     H      0.946410000000     0.560200000000     0.267670000000     0.0456167  
H142     H      0.975620000000     0.456810000000     0.174710000000     0.0371556  
H143     H      0.018800000000     0.559060000000     0.166270000000     0.037647   
H144     H      0.932410000000     0.542890000000     0.370840000000     0.0386873  
H145     H      0.015530000000     0.453870000000     0.126120000000     0.0566324  
H146     H      0.031880000000     0.550220000000     0.324600000000     0.0388418  
H147     H      0.931660000000     0.502790000000     0.321460000000     0.0365569  
H148     H      0.032540000000     0.546080000000     0.389720000000     0.0455181  
H149     H      0.010190000000     0.555730000000     0.100460000000     0.0661557  
H150     H      0.953200000000     0.550470000000     0.205000000000     0.0421274  
H151     H      0.971750000000     0.452490000000     0.109630000000     0.0417869  
H152     H      0.022590000000     0.479420000000     0.288200000000     0.0473515  
H153     H      0.950700000000     0.491890000000     0.155290000000     0.0380099  
H154     H      0.931070000000     0.498380000000     0.386640000000     0.042955   
H155     H      0.026890000000     0.505910000000     0.340730000000     0.0469075  
H156     H      0.968050000000     0.477960000000     0.338310000000     0.0460716  
H157     H      0.031810000000     0.472030000000     0.225510000000     0.0526989  
H158     H      0.975490000000     0.550390000000     0.150510000000     0.0319186  
H159     H      0.998630000000     0.573750000000     0.372980000000     0.0374931  
H160     H      0.094810000000     0.497590000000     0.136340000000     0.182483   
H161     H      0.223450000000     0.933500000000     0.531050000000     0.0456873  
H162     H      0.317170000000     0.036610000000     0.501300000000     0.036193   
H163     H      0.330780000000     0.931420000000     0.467410000000     0.037791   
H164     H      0.122230000000     0.954680000000     0.545470000000     0.039465   
H165     H      0.367780000000     0.037710000000     0.463920000000     0.0531429  
H166     H      0.165920000000     0.949600000000     0.444410000000     0.0372028  
H167     H      0.174080000000     0.991350000000     0.546740000000     0.0356566  
H168     H      0.101120000000     0.958490000000     0.445430000000     0.0427368  
H169     H      0.396070000000     0.937650000000     0.479930000000     0.066312   
H170     H      0.286570000000     0.940880000000     0.525890000000     0.0424494  
H171     H      0.381500000000     0.043420000000     0.508270000000     0.0422776  
H172     H      0.207890000000     0.014660000000     0.454090000000     0.0426721  
H173     H      0.335980000000     0.004230000000     0.529950000000     0.0385171  
H174     H      0.109360000000     0.999980000000     0.548990000000     0.0411908  
H175     H      0.152860000000     0.994520000000     0.452220000000     0.039382   
H176     H      0.158190000000     0.018920000000     0.511960000000     0.0401045  
H177     H      0.270930000000     0.019720000000     0.446570000000     0.0503734  
H178     H      0.343480000000     0.944270000000     0.510670000000     0.0321648  
H179     H      0.116490000000     0.927380000000     0.476940000000     0.0382052  
H180     H      0.363760000000     0.986100000000     0.388190000000     0.179408   
H181     H      0.716610000000     0.991520000000     0.462960000000     0.0437376  
H182     H      0.824290000000     0.024370000000     0.547690000000     0.0361419  
H183     H      0.827500000000     0.046460000000     0.439180000000     0.0376273  
H184     H      0.618080000000     0.069720000000     0.527620000000     0.0436279  
H185     H      0.877780000000     0.056550000000     0.537890000000     0.0521595  
H186     H      0.677160000000     0.975320000000     0.521230000000     0.0372423  
H187     H      0.666220000000     0.081170000000     0.488310000000     0.0372998  
H188     H      0.612400000000     0.966530000000     0.515570000000     0.0465837  
H189     H      0.891440000000     0.027210000000     0.438910000000     0.065865   
H190     H      0.779490000000     0.994700000000     0.458240000000     0.0425714  
H191     H      0.887700000000     0.011630000000     0.547930000000     0.0413719  
H192     H      0.717710000000     0.075070000000     0.539050000000     0.0470155  
H193     H      0.835990000000     0.990580000000     0.516950000000     0.0387933  
H194     H      0.601450000000     0.073350000000     0.483940000000     0.0446412  
H195     H      0.659940000000     0.984870000000     0.478360000000     0.0440084  
H196     H      0.653940000000     0.045890000000     0.459470000000     0.0434375  
H197     H      0.781140000000     0.080510000000     0.531820000000     0.050589   
H198     H      0.837380000000     0.003120000000     0.454920000000     0.0322298  
H199     H      0.625000000000     0.996470000000     0.549310000000     0.0407507  
H200     H      0.873630000000     0.126780000000     0.479660000000     0.178783   
H201     H      0.927600000000     0.776990000000     0.475710000000     0.0449174  
H202     H      0.922920000000     0.668260000000     0.536780000000     0.037025   
H203     H      0.029120000000     0.680640000000     0.507550000000     0.0358464  
H204     H      0.927260000000     0.885740000000     0.532730000000     0.0379934  
H205     H      0.952870000000     0.618920000000     0.562460000000     0.0511253  
H206     H      0.980030000000     0.822880000000     0.457510000000     0.0353798  
H207     H      0.951990000000     0.836440000000     0.563830000000     0.0363099  
H208     H      0.989570000000     0.887350000000     0.451330000000     0.0411902  
H209     H      0.032910000000     0.615680000000     0.496470000000     0.0647109  
H210     H      0.933720000000     0.713460000000     0.480250000000     0.0420265  
H211     H      0.927200000000     0.603210000000     0.526800000000     0.0424551  
H212     H      0.008070000000     0.790320000000     0.553390000000     0.0426744  
H213     H      0.936930000000     0.656040000000     0.493410000000     0.0369707  
H214     H      0.962810000000     0.901300000000     0.558850000000     0.0422004  
H215     H      0.011750000000     0.839450000000     0.488080000000     0.0404802  
H216     H      0.995600000000     0.847720000000     0.549680000000     0.0389371  
H217     H      0.011700000000     0.726840000000     0.560400000000     0.0535022  
H218     H      0.998020000000     0.663710000000     0.476880000000     0.0337809  
H219     H      0.945070000000     0.875900000000     0.461010000000     0.039684   
H220     H      0.030090000000     0.641900000000     0.601790000000     0.179049   
H221     H      0.060050000000     0.230300000000     0.514660000000     0.0465093  
H222     H      0.953870000000     0.320850000000     0.489590000000     0.0372694  
H223     H      0.054090000000     0.335330000000     0.444560000000     0.0393824  
H224     H      0.047380000000     0.130340000000     0.532610000000     0.0391221  
H225     H      0.949780000000     0.372060000000     0.452170000000     0.0515687  
H226     H      0.040240000000     0.168000000000     0.429510000000     0.0385857  
H227     H      0.008420000000     0.180600000000     0.534860000000     0.036379   
H228     H      0.034140000000     0.102520000000     0.435000000000     0.0455285  
H229     H      0.049230000000     0.400550000000     0.456750000000     0.06964    
H230     H      0.049370000000     0.293180000000     0.508850000000     0.0457144  
H231     H      0.947020000000     0.385480000000     0.496990000000     0.0431856  
H232     H      0.977760000000     0.209340000000     0.440700000000     0.0456026  
H233     H      0.988510000000     0.339970000000     0.515160000000     0.0432395  
H234     H      0.003690000000     0.115780000000     0.541830000000     0.0431351  
H235     H      0.997180000000     0.153670000000     0.442480000000     0.0453206  
H236     H      0.978740000000     0.161290000000     0.503800000000     0.0440127  
H237     H      0.969410000000     0.272350000000     0.432370000000     0.0519003  
H238     H      0.046540000000     0.348290000000     0.489040000000     0.0386567  
H239     H      0.067550000000     0.121010000000     0.462080000000     0.0381571  
H240     H      0.991690000000     0.364140000000     0.372580000000     0.179235   
N1       N      0.599440000000     0.519040000000     0.007340000000    -0.153902   
N2       N      0.672210000000     0.515410000000     0.006840000000    -0.109493   
N3       N      0.820900000000     0.510960000000     0.008680000000    -0.112789   
N4       N      0.893130000000     0.502230000000     0.999250000000    -0.167305   
N5       N      0.102090000000     0.481380000000     0.998410000000    -0.153318   
N6       N      0.174980000000     0.474050000000     0.002490000000    -0.108831   
N7       N      0.323000000000     0.457940000000     0.995270000000    -0.112597   
N8       N      0.395550000000     0.469540000000     0.998320000000    -0.167529   
N9       N      0.477070000000     0.894620000000     0.006690000000    -0.154523   
N10      N      0.466140000000     0.821600000000     0.004300000000    -0.109022   
N11      N      0.453830000000     0.672330000000     0.010050000000    -0.112752   
N12      N      0.467820000000     0.599620000000     0.006690000000    -0.166998   
N13      N      0.501050000000     0.102730000000     0.977310000000    -0.15509    
N14      N      0.511150000000     0.175900000000     0.971240000000    -0.107954   
N15      N      0.533680000000     0.322930000000     0.991460000000    -0.112865   
N16      N      0.525500000000     0.396150000000     0.998730000000    -0.166589   
N17      N      0.490640000000     0.003210000000     0.600030000000    -0.154288   
N18      N      0.488080000000     0.000120000000     0.673340000000    -0.108795   
N19      N      0.469180000000     0.979190000000     0.819280000000    -0.112959   
N20      N      0.473340000000     0.981170000000     0.892590000000    -0.165586   
N21      N      0.510450000000     0.011600000000     0.390870000000    -0.153574   
N22      N      0.521630000000     0.015910000000     0.318290000000    -0.108295   
N23      N      0.513990000000     0.025410000000     0.169810000000    -0.112979   
N24      N      0.505160000000     0.016730000000     0.097340000000    -0.167052   
N25      N      0.997140000000     0.477290000000     0.596810000000    -0.154682   
N26      N      0.002400000000     0.465970000000     0.669440000000    -0.107661   
N27      N      0.010080000000     0.475860000000     0.818330000000    -0.11227    
N28      N      0.000900000000     0.481970000000     0.891010000000    -0.16667    
N29      N      0.999810000000     0.500470000000     0.100390000000    -0.154694   
N30      N      0.001270000000     0.506400000000     0.173690000000    -0.108038   
N31      N      0.980580000000     0.529200000000     0.319430000000    -0.11267    
N32      N      0.979990000000     0.525530000000     0.392800000000    -0.166215   
N33      N      0.394020000000     0.993570000000     0.484950000000    -0.15448    
N34      N      0.320920000000     0.985130000000     0.479790000000    -0.108216   
N35      N      0.173490000000     0.967250000000     0.496630000000    -0.11287    
N36      N      0.100230000000     0.975370000000     0.499260000000    -0.166816   
N37      N      0.895980000000     0.027300000000     0.494560000000    -0.155029   
N38      N      0.823230000000     0.040230000000     0.494310000000    -0.10785    
N39      N      0.674950000000     0.029770000000     0.508500000000    -0.112221   
N40      N      0.601840000000     0.021380000000     0.505880000000    -0.164347   
N41      N      0.982970000000     0.604050000000     0.518640000000    -0.155249   
N42      N      0.976750000000     0.677560000000     0.526330000000    -0.107821   
N43      N      0.962250000000     0.826310000000     0.510130000000    -0.112784   
N44      N      0.971770000000     0.899430000000     0.503250000000    -0.167172   
N45      N      0.994970000000     0.398220000000     0.470510000000    -0.154449   
N46      N      0.002780000000     0.324760000000     0.463480000000    -0.107163   
N47      N      0.027620000000     0.177900000000     0.482760000000    -0.11249    
N48      N      0.023180000000     0.104370000000     0.490270000000    -0.166047   
O1       O      0.012750000000     0.050980000000     0.464440000000    -0.393012   
O2       O      0.985070000000     0.948350000000     0.470980000000    -0.397663   
O3       O      0.947360000000     0.013930000000     0.466370000000    -0.388475   
O4       O      0.049520000000     0.985370000000     0.469070000000    -0.397238   
O5       O      0.049670000000     0.992210000000     0.526800000000    -0.396374   
O6       O      0.946330000000     0.015130000000     0.524470000000    -0.397461   
O7       O      0.985580000000     0.952010000000     0.529010000000    -0.398275   
O8       O      0.009180000000     0.055520000000     0.522280000000    -0.397598   
O9       O      0.963190000000     0.446690000000     0.486560000000    -0.395269   
O10      O      0.956750000000     0.550870000000     0.507840000000    -0.397039   
O11      O      0.955620000000     0.508930000000     0.444930000000    -0.39642    
O12      O      0.964140000000     0.488800000000     0.548350000000    -0.397777   
O13      O      0.022090000000     0.489610000000     0.543620000000    -0.387537   
O14      O      0.013130000000     0.517150000000     0.441800000000    -0.395055   
O15      O      0.014740000000     0.554740000000     0.505670000000    -0.390131   
O16      O      0.020550000000     0.452080000000     0.478610000000    -0.388892   
O17      O      0.554120000000     0.985320000000     0.501140000000    -0.392475   
O18      O      0.449830000000     0.971340000000     0.487880000000    -0.389403   
O19      O      0.508720000000     0.980520000000     0.442110000000    -0.388468   
O20      O      0.496610000000     0.976120000000     0.546910000000    -0.39831    
O21      O      0.489970000000     0.034250000000     0.548670000000    -0.389175   
O22      O      0.497470000000     0.037940000000     0.443150000000    -0.394979   
O23      O      0.441720000000     0.029110000000     0.492390000000    -0.396656   
O24      O      0.546370000000     0.043310000000     0.499420000000    -0.392326   
O25      O      0.525710000000     0.002620000000     0.042840000000    -0.397737   
O26      O      0.509760000000     0.986150000000     0.939620000000    -0.394469   
O27      O      0.523740000000     0.047020000000     0.981780000000    -0.397454   
O28      O      0.511820000000     0.942870000000     0.999080000000    -0.395139   
O29      O      0.454750000000     0.950690000000     0.007340000000    -0.394289   
O30      O      0.466840000000     0.055210000000     0.990580000000    -0.390428   
O31      O      0.452830000000     0.995790000000     0.946890000000    -0.392431   
O32      O      0.468680000000     0.011300000000     0.050300000000    -0.398886   
O33      O      0.052940000000     0.515470000000     0.993830000000    -0.394389   
O34      O      0.947770000000     0.525840000000     0.992840000000    -0.399089   
O35      O      0.001180000000     0.525110000000     0.045780000000    -0.391841   
O36      O      0.000010000000     0.515970000000     0.940400000000    -0.397779   
O37      O      0.995330000000     0.457840000000     0.945560000000    -0.398176   
O38      O      0.994500000000     0.467170000000     0.050840000000    -0.394379   
O39      O      0.942200000000     0.467840000000     0.998510000000    -0.400072   
O40      O      0.047250000000     0.457380000000     0.998370000000    -0.391292   
O41      O      0.507900000000     0.444630000000     0.029530000000    -0.39745    
O42      O      0.482430000000     0.547950000000     0.033940000000    -0.397868   
O43      O      0.444440000000     0.484000000000     0.029340000000    -0.401446   
O44      O      0.546980000000     0.508250000000     0.034200000000    -0.398156   
O45      O      0.548500000000     0.514140000000     0.976370000000    -0.391194   
O46      O      0.447130000000     0.484040000000     0.971280000000    -0.397619   
O47      O      0.483180000000     0.550380000000     0.975870000000    -0.398355   
O48      O      0.513320000000     0.448490000000     0.971780000000    -0.39488    
O49      O      0.625610000000     0.460970000000     0.968120000000    -0.335926   
O50      O      0.615780000000     0.493900000000     0.921090000000    -0.251857   
O51      O      0.127780000000     0.448800000000     0.061790000000    -0.333779   
O52      O      0.106560000000     0.399870000000     0.038060000000    -0.248482   
O53      O      0.469240000000     0.864960000000     0.936580000000    -0.336549   
O54      O      0.525350000000     0.879850000000     0.933090000000    -0.252671   
O55      O      0.463400000000     0.143030000000     0.920700000000    -0.337567   
O56      O      0.419630000000     0.118140000000     0.949850000000    -0.247746   
O57      O      0.543910000000     0.043570000000     0.637930000000    -0.337267   
O58      O      0.514150000000     0.088520000000     0.615620000000    -0.248571   
O59      O      0.584200000000     0.017400000000     0.366160000000    -0.336638   
O60      O      0.585570000000     0.965970000000     0.393830000000    -0.248574   
O61      O      0.009240000000     0.402840000000     0.624010000000    -0.336493   
O62      O      0.051000000000     0.410980000000     0.584410000000    -0.247451   
O63      O      0.069820000000     0.501230000000     0.135850000000    -0.33507    
O64      O      0.073890000000     0.546790000000     0.099640000000    -0.248145   
O65      O      0.362890000000     0.984940000000     0.413390000000    -0.336554   
O66      O      0.400640000000     0.940520000000     0.415840000000    -0.247837   
O67      O      0.869890000000     0.101690000000     0.481130000000    -0.336889   
O68      O      0.905020000000     0.090520000000     0.436190000000    -0.248776   
O69      O      0.018640000000     0.641810000000     0.579290000000    -0.337704   
O70      O      0.061490000000     0.611490000000     0.554110000000    -0.245858   
O71      O      0.996820000000     0.363080000000     0.397270000000    -0.336954   
O72      O      0.031870000000     0.409690000000     0.395180000000    -0.247955   


