data_structure

_audit_creation_method RASPA-1.0
_audit_creation_date 2023-5-19
_audit_author_name 'Poobodin Mano'

_cell_length_a    38.5515
_cell_length_b    38.6051
_cell_length_c    38.5098
_cell_angle_alpha 89.9998
_cell_angle_beta  89.9998
_cell_angle_gamma 89.9998
_cell_volume      57313.5

_symmetry_cell_setting          triclinic
_symmetry_space_group_name_Hall 'P 1'
_symmetry_space_group_name_H-M  'P 1'
_symmetry_Int_Tables_number     1

_symmetry_equiv_pos_as_xyz 'x,y,z'

loop_
_atom_site_label
_atom_site_type_symbol
_atom_site_fract_x
_atom_site_fract_y
_atom_site_fract_z
_atom_site_charge
C1       C      0.010830000000     0.074570000000     0.497160000000     0.399152   
C2       C      0.997640000000     0.937230000000     0.499930000000     0.398694   
C3       C      0.072800000000     0.001000000000     0.504990000000     0.397435   
C4       C      0.935490000000     0.011820000000     0.492070000000     0.398152   
C5       C      0.992450000000     0.498530000000     0.440410000000     0.399903   
C6       C      0.996520000000     0.511430000000     0.577980000000     0.399806   
C7       C      0.996700000000     0.436290000000     0.515100000000     0.399496   
C8       C      0.991930000000     0.573820000000     0.504180000000     0.398474   
C9       C      0.515790000000     0.995890000000     0.568910000000     0.398574   
C10      C      0.493030000000     0.011030000000     0.433150000000     0.398779   
C11      C      0.572780000000     0.004200000000     0.489570000000     0.398001   
C12      C      0.436290000000     0.002850000000     0.512460000000     0.398292   
C13      C      0.504130000000     0.001720000000     0.070230000000     0.398037   
C14      C      0.504900000000     0.993480000000     0.931940000000     0.397433   
C15      C      0.502960000000     0.066880000000     0.996440000000     0.39963    
C16      C      0.505910000000     0.929180000000     0.004770000000     0.398354   
C17      C      0.002410000000     0.502230000000     0.077700000000     0.399466   
C18      C      0.013770000000     0.511660000000     0.940380000000     0.39998    
C19      C      0.076410000000     0.503630000000     0.014790000000     0.399509   
C20      C      0.939070000000     0.510400000000     0.003230000000     0.399673   
C21      C      0.515070000000     0.428870000000     0.008090000000     0.399859   
C22      C      0.501150000000     0.566140000000     0.006050000000     0.399057   
C23      C      0.439280000000     0.491240000000     0.006340000000     0.398813   
C24      C      0.576680000000     0.504650000000     0.007890000000     0.399549   
C25      C      0.848750000000     0.539880000000     0.018330000000    -0.0302667  
C26      C      0.667780000000     0.514690000000     0.040480000000    -0.0300969  
C27      C      0.630820000000     0.508210000000     0.974610000000    -0.00599579 
C28      C      0.629100000000     0.523710000000     0.039160000000    -0.00735969 
C29      C      0.738760000000     0.543040000000     0.983910000000    -0.0541142  
C30      C      0.776700000000     0.494400000000     0.021930000000    -0.0562219  
C31      C      0.721250000000     0.520170000000     0.006040000000     0.060877   
C32      C      0.668810000000     0.498580000000     0.979810000000    -0.0299614  
C33      C      0.794010000000     0.516710000000     0.998700000000     0.0613649  
C34      C      0.847190000000     0.481750000000     0.994670000000    -0.0297361  
C35      C      0.774670000000     0.541130000000     0.980040000000    -0.0546318  
C36      C      0.884760000000     0.484070000000     0.982120000000    -0.00744101 
C37      C      0.885980000000     0.545660000000     0.006020000000    -0.00647508 
C38      C      0.740550000000     0.495400000000     0.024770000000    -0.0558543  
C39      C      0.168930000000     0.527260000000     0.003460000000    -0.0303245  
C40      C      0.346530000000     0.492350000000     0.974810000000    -0.0297096  
C41      C      0.385560000000     0.485590000000     0.039630000000    -0.00581589 
C42      C      0.385110000000     0.501840000000     0.974700000000    -0.00716007 
C43      C      0.278230000000     0.519540000000     0.035790000000    -0.0541712  
C44      C      0.237490000000     0.476270000000     0.994320000000    -0.055653   
C45      C      0.294330000000     0.498020000000     0.011330000000     0.0610042  
C46      C      0.347700000000     0.475200000000     0.034960000000    -0.0300917  
C47      C      0.221530000000     0.497450000000     0.019540000000     0.0609626  
C48      C      0.165620000000     0.466490000000     0.018680000000    -0.0300507  
C49      C      0.242340000000     0.518970000000     0.040110000000    -0.0543463  
C50      C      0.128210000000     0.470060000000     0.031480000000    -0.00741708 
C51      C      0.132270000000     0.534330000000     0.016670000000    -0.00642065 
C52      C      0.273620000000     0.475780000000     0.990990000000    -0.0557118  
C53      C      0.477870000000     0.837540000000     0.019490000000    -0.0302318  
C54      C      0.495400000000     0.657280000000     0.037690000000    -0.0299639  
C55      C      0.500180000000     0.620010000000     0.971930000000    -0.00618053 
C56      C      0.482800000000     0.619720000000     0.035800000000    -0.00754627 
C57      C      0.475870000000     0.730740000000     0.980190000000    -0.0540024  
C58      C      0.523030000000     0.764590000000     0.023640000000    -0.0560281  
C59      C      0.495730000000     0.711250000000     0.003550000000     0.0607386  
C60      C      0.513070000000     0.657040000000     0.977330000000    -0.03013    
C61      C      0.503290000000     0.783980000000     0.999700000000     0.0612977  
C62      C      0.538630000000     0.837110000000     0.004660000000    -0.0303496  
C63      C      0.479880000000     0.766580000000     0.978010000000    -0.0543709  
C64      C      0.538260000000     0.875370000000     0.994010000000    -0.00690755 
C65      C      0.473060000000     0.874990000000     0.007890000000    -0.00599206 
C66      C      0.520040000000     0.728480000000     0.024810000000    -0.0555738  
C67      C      0.536540000000     0.156470000000     0.991640000000    -0.0297347  
C68      C      0.500600000000     0.337920000000     0.034100000000    -0.0304832  
C69      C      0.534270000000     0.375890000000     0.977940000000    -0.00705413 
C70      C      0.515550000000     0.374040000000     0.041110000000    -0.00632562 
C71      C      0.488780000000     0.270380000000     0.981950000000    -0.0557199  
C72      C      0.528720000000     0.225500000000     0.022550000000    -0.0563626  
C73      C      0.514060000000     0.284090000000     0.004570000000     0.0605994  
C74      C      0.519080000000     0.339610000000     0.973810000000    -0.0299211  
C75      C      0.505950000000     0.211760000000     0.997430000000     0.0611934  
C76      C      0.477080000000     0.157860000000     0.012450000000    -0.0306469  
C77      C      0.485380000000     0.234560000000     0.978000000000    -0.0542437  
C78      C      0.469760000000     0.121550000000     0.998040000000    -0.00605564 
C79      C      0.532110000000     0.120130000000     0.976760000000    -0.00726651 
C80      C      0.533180000000     0.261300000000     0.025450000000    -0.0539122  
C81      C      0.504530000000     0.960820000000     0.657340000000    -0.0303972  
C82      C      0.474130000000     0.985900000000     0.839560000000    -0.0300467  
C83      C      0.539090000000     0.990920000000     0.878220000000    -0.00635773 
C84      C      0.474330000000     0.976550000000     0.878300000000    -0.00769471 
C85      C      0.533200000000     0.958500000000     0.769430000000    -0.0541117  
C86      C      0.494250000000     0.005710000000     0.730680000000    -0.0555783  
C87      C      0.509740000000     0.980340000000     0.786590000000     0.0607424  
C88      C      0.534910000000     0.001040000000     0.840130000000    -0.0300843  
C89      C      0.518940000000     0.984640000000     0.713780000000     0.0606037  
C90      C      0.522340000000     0.021020000000     0.661300000000    -0.0300212  
C91      C      0.538010000000     0.960870000000     0.733570000000    -0.0542492  
C92      C      0.536650000000     0.020710000000     0.624270000000    -0.00742175 
C93      C      0.518700000000     0.957620000000     0.620280000000    -0.00664592 
C94      C      0.490460000000     0.004320000000     0.766820000000    -0.0557051  
C95      C      0.469480000000     0.003740000000     0.160570000000    -0.0297498  
C96      C      0.506660000000     0.042570000000     0.344040000000    -0.0305576  
C97      C      0.469180000000     0.986860000000     0.378810000000    -0.00717029 
C98      C      0.492160000000     0.048220000000     0.380780000000    -0.00656354 
C99      C      0.472870000000     0.037090000000     0.265750000000    -0.0541932  
C100     C      0.521510000000     0.990780000000     0.238660000000    -0.053761   
C101     C      0.492300000000     0.016420000000     0.288480000000     0.060851   
C102     C      0.484250000000     0.983650000000     0.342310000000    -0.0299072  
C103     C      0.500470000000     0.009760000000     0.215870000000     0.0605366  
C104     C      0.528940000000     0.023990000000     0.161270000000    -0.0302943  
C105     C      0.477310000000     0.034400000000     0.229800000000    -0.0558363  
C106     C      0.536250000000     0.008640000000     0.125230000000    -0.00657849 
C107     C      0.473460000000     0.987900000000     0.124460000000    -0.00761223 
C108     C      0.518070000000     0.994510000000     0.274610000000    -0.0561663  
C109     C      0.029040000000     0.505650000000     0.668620000000    -0.0302299  
C110     C      0.017930000000     0.483990000000     0.848150000000    -0.0299712  
C111     C      0.013710000000     0.548150000000     0.887930000000    -0.00636826 
C112     C      0.032170000000     0.484930000000     0.885190000000    -0.00732455 
C113     C      0.032800000000     0.543890000000     0.775490000000    -0.0543679  
C114     C      0.985730000000     0.499700000000     0.742560000000    -0.0557339  
C115     C      0.014420000000     0.519620000000     0.795290000000     0.0610299  
C116     C      0.999360000000     0.543940000000     0.851180000000    -0.0301319  
C117     C      0.004130000000     0.524370000000     0.722810000000     0.0610202  
C118     C      0.967640000000     0.518280000000     0.670540000000    -0.0298958  
C119     C      0.027410000000     0.546520000000     0.739780000000    -0.0542669  
C120     C      0.966790000000     0.528240000000     0.632060000000    -0.0073435  
C121     C      0.031990000000     0.516470000000     0.630660000000    -0.00604989 
C122     C      0.990020000000     0.498090000000     0.778580000000    -0.0557494  
C123     C      0.979780000000     0.469890000000     0.166310000000    -0.0301951  
C124     C      0.958190000000     0.489770000000     0.349840000000    -0.0301008  
C125     C      0.024770000000     0.494540000000     0.385660000000    -0.00601639 
C126     C      0.960150000000     0.480110000000     0.388360000000    -0.00722658 
C127     C      0.013000000000     0.462140000000     0.277050000000    -0.0543616  
C128     C      0.975110000000     0.512250000000     0.240950000000    -0.0560104  
C129     C      0.991370000000     0.484760000000     0.295510000000     0.0610876  
C130     C      0.019080000000     0.504800000000     0.347850000000    -0.0302622  
C131     C      0.998090000000     0.490410000000     0.222740000000     0.0612498  
C132     C      0.002510000000     0.528020000000     0.171430000000    -0.0298338  
C133     C      0.016570000000     0.465150000000     0.241140000000    -0.0544678  
C134     C      0.016470000000     0.527840000000     0.134310000000    -0.00727485 
C135     C      0.993360000000     0.465830000000     0.129230000000    -0.00604747 
C136     C      0.972590000000     0.510160000000     0.277110000000    -0.0559072  
C137     C      0.344250000000     0.977120000000     0.503030000000    -0.0303625  
C138     C      0.161370000000     0.001590000000     0.545830000000    -0.0299243  
C139     C      0.129980000000     0.998500000000     0.476870000000    -0.00641383 
C140     C      0.123570000000     0.012840000000     0.541540000000    -0.00732658 
C141     C      0.234460000000     0.981140000000     0.538320000000    -0.0560262  
C142     C      0.274900000000     0.027160000000     0.499480000000    -0.0559151  
C143     C      0.218050000000     0.005820000000     0.516910000000     0.0607469  
C144     C      0.167080000000     0.987020000000     0.485140000000    -0.0301963  
C145     C      0.291200000000     0.004110000000     0.522720000000     0.0606571  
C146     C      0.346540000000     0.035960000000     0.524880000000    -0.0300325  
C147     C      0.270570000000     0.980880000000     0.541630000000    -0.0539811  
C148     C      0.384360000000     0.031900000000     0.536330000000    -0.00754387 
C149     C      0.381560000000     0.969860000000     0.514440000000    -0.00652829 
C150     C      0.238720000000     0.028370000000     0.497240000000    -0.0539084  
C151     C      0.663800000000     0.972930000000     0.476720000000    -0.0301365  
C152     C      0.846550000000     0.997550000000     0.457700000000    -0.0303259  
C153     C      0.879670000000     0.030440000000     0.517320000000    -0.00766153 
C154     C      0.883850000000     0.010730000000     0.454320000000    -0.00655082 
C155     C      0.772460000000     0.990340000000     0.500680000000    -0.0557055  
C156     C      0.735760000000     0.030520000000     0.452790000000    -0.0543002  
C157     C      0.790390000000     0.014640000000     0.480030000000     0.0606726  
C158     C      0.842270000000     0.017140000000     0.517300000000    -0.0298962  
C159     C      0.717600000000     0.007370000000     0.474130000000     0.0607186  
C160     C      0.664550000000     0.032730000000     0.495550000000    -0.0300971  
C161     C      0.736310000000     0.987480000000     0.498490000000    -0.0558582  
C162     C      0.626620000000     0.038170000000     0.485570000000    -0.00652104 
C163     C      0.625190000000     0.974760000000     0.467170000000    -0.00762557 
C164     C      0.771640000000     0.034330000000     0.455920000000    -0.0542671  
C165     C      0.985340000000     0.847690000000     0.534590000000    -0.0299367  
C166     C      0.016640000000     0.666310000000     0.487760000000    -0.0302683  
C167     C      0.959240000000     0.626750000000     0.517320000000    -0.00730628 
C168     C      0.023280000000     0.629080000000     0.499710000000    -0.00627474 
C169     C      0.009710000000     0.739370000000     0.528420000000    -0.0540667  
C170     C      0.966350000000     0.772190000000     0.480560000000    -0.0540733  
C171     C      0.988750000000     0.719250000000     0.506570000000     0.0609937  
C172     C      0.956530000000     0.664370000000     0.505280000000    -0.0298247  
C173     C      0.986400000000     0.792330000000     0.503250000000     0.0609143  
C174     C      0.008910000000     0.844370000000     0.476410000000    -0.0302972  
C175     C      0.009160000000     0.775520000000     0.526410000000    -0.056109   
C176     C      0.998770000000     0.881820000000     0.468350000000    -0.00622037 
C177     C      0.974960000000     0.885670000000     0.530030000000    -0.00747686 
C178     C      0.967920000000     0.736030000000     0.481630000000    -0.0561927  
C179     C      0.016870000000     0.163440000000     0.531720000000    -0.029768   
C180     C      0.973740000000     0.344710000000     0.499120000000    -0.0303208  
C181     C      0.029580000000     0.384000000000     0.531710000000    -0.00735331 
C182     C      0.965930000000     0.380250000000     0.514990000000    -0.00643946 
C183     C      0.028560000000     0.278200000000     0.486660000000    -0.0556657  
C184     C      0.986340000000     0.232610000000     0.524040000000    -0.0561253  
C185     C      0.004890000000     0.291500000000     0.511230000000     0.0606255  
C186     C      0.034310000000     0.348000000000     0.515890000000    -0.0299743  
C187     C      0.012260000000     0.219260000000     0.501970000000     0.0609606  
C188     C      0.997950000000     0.165960000000     0.471560000000    -0.0304233  
C189     C      0.032580000000     0.242430000000     0.482710000000    -0.0540789  
C190     C      0.012100000000     0.129510000000     0.464230000000    -0.00648866 
C191     C      0.031460000000     0.127020000000     0.527120000000    -0.00734732 
C192     C      0.983340000000     0.268320000000     0.529120000000    -0.0537703  
Cu1      Cu     0.001240000000     0.007030000000     0.530400000000     0.84083    
Cu2      Cu     0.006990000000     0.004830000000     0.466620000000     0.837107   
Cu3      Cu     0.026330000000     0.506060000000     0.508180000000     0.845292   
Cu4      Cu     0.962330000000     0.503980000000     0.510220000000     0.838766   
Cu5      Cu     0.503990000000     0.971730000000     0.497350000000     0.838403   
Cu6      Cu     0.505060000000     0.035260000000     0.504650000000     0.838675   
Cu7      Cu     0.536490000000     0.998920000000     0.001000000000     0.83956    
Cu8      Cu     0.472450000000     0.997220000000     0.001130000000     0.839762   
Cu9      Cu     0.006370000000     0.475120000000     0.006710000000     0.838461   
Cu10     Cu     0.009090000000     0.538750000000     0.011310000000     0.845328   
Cu11     Cu     0.507430000000     0.497890000000     0.039200000000     0.838835   
Cu12     Cu     0.508620000000     0.497090000000     0.975100000000     0.845385   
H1       H      0.727960000000     0.476830000000     0.041570000000     0.0398678  
H2       H      0.835470000000     0.565490000000     0.019020000000     0.0337634  
H3       H      0.832740000000     0.463840000000     0.977250000000     0.0338867  
H4       H      0.629400000000     0.534130000000     0.962060000000     0.0388066  
H5       H      0.885440000000     0.560900000000     0.981510000000     0.0384688  
H6       H      0.680390000000     0.530920000000     0.060750000000     0.0338973  
H7       H      0.682410000000     0.502020000000     0.954520000000     0.0338647  
H8       H      0.616600000000     0.514250000000     0.063400000000     0.0403258  
H9       H      0.897420000000     0.458530000000     0.986290000000     0.0407003  
H10      H      0.790780000000     0.475740000000     0.037400000000     0.0399457  
H11      H      0.899790000000     0.561380000000     0.025900000000     0.0397327  
H12      H      0.724310000000     0.561940000000     0.968970000000     0.0439913  
H13      H      0.848720000000     0.529060000000     0.045150000000     0.0381764  
H14      H      0.619020000000     0.489130000000     0.956470000000     0.0394209  
H15      H      0.884660000000     0.489070000000     0.953690000000     0.0371566  
H16      H      0.670400000000     0.487000000000     0.048090000000     0.0360212  
H17      H      0.671060000000     0.470820000000     0.987440000000     0.0380125  
H18      H      0.787590000000     0.558790000000     0.962430000000     0.0440263  
H19      H      0.847150000000     0.470690000000     0.021360000000     0.0362589  
H20      H      0.626370000000     0.552380000000     0.038840000000     0.0374058  
H21      H      0.285060000000     0.458310000000     0.972280000000     0.0397466  
H22      H      0.184230000000     0.551570000000     0.006200000000     0.0338803  
H23      H      0.178400000000     0.445200000000     0.033380000000     0.0338661  
H24      H      0.386630000000     0.510450000000     0.054190000000     0.0401414  
H25      H      0.133920000000     0.545840000000     0.043090000000     0.0384295  
H26      H      0.332990000000     0.508570000000     0.955130000000     0.0339502  
H27      H      0.334620000000     0.477460000000     0.060650000000     0.0336857  
H28      H      0.397240000000     0.491000000000     0.950850000000     0.0398409  
H29      H      0.113530000000     0.446540000000     0.023630000000     0.0405963  
H30      H      0.222360000000     0.459790000000     0.977430000000     0.0398617  
H31      H      0.119950000000     0.553790000000     0.999300000000     0.039887   
H32      H      0.293750000000     0.536520000000     0.051920000000     0.0440991  
H33      H      0.168220000000     0.520270000000     0.975390000000     0.0385469  
H34      H      0.398700000000     0.465660000000     0.055850000000     0.0380942  
H35      H      0.128410000000     0.470830000000     0.060340000000     0.0372645  
H36      H      0.343830000000     0.464690000000     0.967060000000     0.035067   
H37      H      0.345850000000     0.447670000000     0.026480000000     0.0373079  
H38      H      0.230540000000     0.535700000000     0.059350000000     0.0439222  
H39      H      0.165040000000     0.459330000000     0.990680000000     0.0364336  
H40      H      0.387510000000     0.530500000000     0.972930000000     0.0383094  
H41      H      0.536420000000     0.714360000000     0.042660000000     0.0398646  
H42      H      0.452520000000     0.824020000000     0.016480000000     0.033741   
H43      H      0.559130000000     0.823560000000     0.989510000000     0.0341701  
H44      H      0.474250000000     0.620910000000     0.959300000000     0.0384229  
H45      H      0.460070000000     0.875190000000     0.982090000000     0.0398442  
H46      H      0.479820000000     0.671220000000     0.057610000000     0.0339442  
H47      H      0.511280000000     0.670870000000     0.952020000000     0.0339016  
H48      H      0.489640000000     0.606490000000     0.060520000000     0.0406197  
H49      H      0.561800000000     0.888140000000     0.004750000000     0.0398674  
H50      H      0.540950000000     0.777040000000     0.041250000000     0.0399086  
H51      H      0.455390000000     0.888130000000     0.026570000000     0.0385434  
H52      H      0.457370000000     0.717960000000     0.963340000000     0.0439383  
H53      H      0.485160000000     0.836570000000     0.047480000000     0.0377033  
H54      H      0.518280000000     0.606650000000     0.953850000000     0.0396962  
H55      H      0.540210000000     0.876950000000     0.965240000000     0.0379315  
H56      H      0.523040000000     0.657220000000     0.046050000000     0.0363938  
H57      H      0.540810000000     0.656830000000     0.985470000000     0.0385043  
H58      H      0.464230000000     0.781050000000     0.959710000000     0.0441776  
H59      H      0.545420000000     0.835420000000     0.032710000000     0.0355584  
H60      H      0.454030000000     0.619780000000     0.033800000000     0.0373066  
H61      H      0.551960000000     0.271390000000     0.043760000000     0.0433211  
H62      H      0.556280000000     0.170470000000     0.975890000000     0.0343315  
H63      H      0.452380000000     0.172790000000     0.012240000000     0.0336011  
H64      H      0.562780000000     0.373500000000     0.981620000000     0.0365784  
H65      H      0.527400000000     0.122350000000     0.948360000000     0.036712   
H66      H      0.501640000000     0.322850000000     0.058720000000     0.0334748  
H67      H      0.533990000000     0.325680000000     0.953390000000     0.0343345  
H68      H      0.498300000000     0.387670000000     0.059800000000     0.0390501  
H69      H      0.452050000000     0.107810000000     0.016220000000     0.0388055  
H70      H      0.543940000000     0.208810000000     0.039160000000     0.0403084  
H71      H      0.556820000000     0.105700000000     0.980250000000     0.0408538  
H72      H      0.472410000000     0.287050000000     0.966470000000     0.040289   
H73      H      0.546330000000     0.154060000000     0.018720000000     0.0370791  
H74      H      0.529960000000     0.390520000000     0.953460000000     0.0407217  
H75      H      0.456190000000     0.124140000000     0.972690000000     0.0383237  
H76      H      0.472930000000     0.340050000000     0.026020000000     0.0383516  
H77      H      0.491680000000     0.342210000000     0.965070000000     0.0374094  
H78      H      0.466960000000     0.224450000000     0.959340000000     0.043609   
H79      H      0.486220000000     0.155990000000     0.039830000000     0.0381955  
H80      H      0.541460000000     0.371160000000     0.053470000000     0.0381646  
H81      H      0.472490000000     0.022050000000     0.778990000000     0.0399103  
H82      H      0.506130000000     0.934870000000     0.669840000000     0.0338925  
H83      H      0.537410000000     0.040070000000     0.676880000000     0.0339467  
H84      H      0.551340000000     0.964870000000     0.879640000000     0.0390931  
H85      H      0.544840000000     0.945490000000     0.621380000000     0.0380327  
H86      H      0.453890000000     0.970140000000     0.826340000000     0.0340763  
H87      H      0.560450000000     0.997420000000     0.827100000000     0.0338137  
H88      H      0.450090000000     0.986530000000     0.890340000000     0.0403427  
H89      H      0.531740000000     0.046410000000     0.612230000000     0.0407675  
H90      H      0.478420000000     0.023870000000     0.716360000000     0.039988   
H91      H      0.501380000000     0.940090000000     0.605290000000     0.039621   
H92      H      0.548530000000     0.940130000000     0.784150000000     0.0439791  
H93      H      0.476740000000     0.968710000000     0.656620000000     0.038768   
H94      H      0.557130000000     0.009660000000     0.890710000000     0.03919    
H95      H      0.565250000000     0.017160000000     0.625600000000     0.036629   
H96      H      0.467050000000     0.013740000000     0.837010000000     0.035996   
H97      H      0.527750000000     0.028930000000     0.838000000000     0.0380088  
H98      H      0.556830000000     0.944190000000     0.721070000000     0.0437617  
H99      H      0.494800000000     0.029620000000     0.660280000000     0.0371818  
H100     H      0.473830000000     0.947860000000     0.880790000000     0.0377576  
H101     H      0.534670000000     0.979290000000     0.291310000000     0.0405474  
H102     H      0.449550000000     0.988690000000     0.175050000000     0.0342435  
H103     H      0.553660000000     0.024190000000     0.176210000000     0.0335602  
H104     H      0.441160000000     0.993300000000     0.376530000000     0.0362036  
H105     H      0.476870000000     0.959440000000     0.127300000000     0.0372311  
H106     H      0.506970000000     0.067980000000     0.330390000000     0.0337781  
H107     H      0.468000000000     0.965180000000     0.327220000000     0.0344695  
H108     H      0.510370000000     0.065080000000     0.395480000000     0.0390479  
H109     H      0.553520000000     0.026670000000     0.110770000000     0.0387377  
H110     H      0.540220000000     0.972490000000     0.228450000000     0.0435501  
H111     H      0.448950000000     0.992150000000     0.109870000000     0.040859   
H112     H      0.453680000000     0.054860000000     0.275970000000     0.0435658  
H113     H      0.460080000000     0.030850000000     0.157600000000     0.036543   
H114     H      0.471060000000     0.961310000000     0.391990000000     0.04065    
H115     H      0.550420000000     0.983760000000     0.128480000000     0.038877   
H116     H      0.533830000000     0.032870000000     0.345630000000     0.0385298  
H117     H      0.510920000000     0.972820000000     0.344500000000     0.0378476  
H118     H      0.461650000000     0.050630000000     0.213140000000     0.0401357  
H119     H      0.519810000000     0.051250000000     0.158710000000     0.0377841  
H120     H      0.466900000000     0.061990000000     0.378720000000     0.0378624  
H121     H      0.974690000000     0.479560000000     0.792950000000     0.0399559  
H122     H      0.054670000000     0.510200000000     0.681170000000     0.0337811  
H123     H      0.947040000000     0.533010000000     0.684390000000     0.033907   
H124     H      0.039560000000     0.560860000000     0.886430000000     0.038245   
H125     H      0.042740000000     0.543180000000     0.629380000000     0.0389549  
H126     H      0.033200000000     0.464860000000     0.832860000000     0.0338557  
H127     H      0.000340000000     0.569680000000     0.838160000000     0.0337783  
H128     H      0.026850000000     0.459570000000     0.897780000000     0.0407381  
H129     H      0.942540000000     0.517900000000     0.620370000000     0.0404051  
H130     H      0.967950000000     0.481720000000     0.730500000000     0.0399221  
H131     H      0.050760000000     0.498880000000     0.617590000000     0.0392961  
H132     H      0.051330000000     0.560960000000     0.787910000000     0.0437866  
H133     H      0.023120000000     0.477460000000     0.670480000000     0.038278   
H134     H      0.996100000000     0.565600000000     0.902680000000     0.0397904  
H135     H      0.965620000000     0.556960000000     0.630050000000     0.037148   
H136     H      0.990460000000     0.475140000000     0.849250000000     0.036721   
H137     H      0.971750000000     0.535490000000     0.852230000000     0.0386133  
H138     H      0.042050000000     0.565410000000     0.725020000000     0.0438988  
H139     H      0.961750000000     0.490120000000     0.672720000000     0.0362034  
H140     H      0.060820000000     0.488030000000     0.883880000000     0.036903   
H141     H      0.956120000000     0.528530000000     0.290410000000     0.0398219  
H142     H      0.978770000000     0.443720000000     0.178420000000     0.0337042  
H143     H      0.018990000000     0.545540000000     0.187380000000     0.0339244  
H144     H      0.036710000000     0.468330000000     0.386500000000     0.038794   
H145     H      0.017390000000     0.449900000000     0.129820000000     0.0389962  
H146     H      0.937400000000     0.474110000000     0.337380000000     0.033844   
H147     H      0.044010000000     0.501040000000     0.333730000000     0.0339896  
H148     H      0.936250000000     0.489560000000     0.401460000000     0.0403252  
H149     H      0.011470000000     0.553670000000     0.122550000000     0.0405653  
H150     H      0.959790000000     0.531550000000     0.227600000000     0.0398174  
H151     H      0.973730000000     0.451410000000     0.113740000000     0.0388363  
H152     H      0.027940000000     0.442730000000     0.290790000000     0.0440212  
H153     H      0.952930000000     0.480570000000     0.165950000000     0.0376494  
H154     H      0.043550000000     0.513050000000     0.397380000000     0.0394422  
H155     H      0.045090000000     0.524330000000     0.135260000000     0.0377045  
H156     H      0.951040000000     0.517640000000     0.347860000000     0.036129   
H157     H      0.011990000000     0.532730000000     0.346120000000     0.038139   
H158     H      0.034040000000     0.447870000000     0.227530000000     0.0440465  
H159     H      0.975620000000     0.538540000000     0.171060000000     0.0358784  
H160     H      0.960290000000     0.451390000000     0.390610000000     0.0371264  
H161     H      0.226640000000     0.046880000000     0.479910000000     0.0437671  
H162     H      0.329690000000     0.952220000000     0.503640000000     0.0334881  
H163     H      0.333670000000     0.055120000000     0.542220000000     0.0343246  
H164     H      0.130900000000     0.024310000000     0.464070000000     0.0396788  
H165     H      0.381020000000     0.955850000000     0.539670000000     0.0381078  
H166     H      0.172940000000     0.016420000000     0.567750000000     0.0342241  
H167     H      0.183050000000     0.990450000000     0.461290000000     0.0335417  
H168     H      0.108520000000     0.003070000000     0.564150000000     0.0403388  
H169     H      0.398210000000     0.056680000000     0.531440000000     0.0406849  
H170     H      0.289800000000     0.044590000000     0.483360000000     0.0403677  
H171     H      0.393800000000     0.952490000000     0.494920000000     0.0395503  
H172     H      0.219620000000     0.962390000000     0.552940000000     0.0401088  
H173     H      0.343960000000     0.986980000000     0.475840000000     0.0383172  
H174     H      0.118540000000     0.979960000000     0.457940000000     0.0384105  
H175     H      0.384860000000     0.027240000000     0.564820000000     0.0368897  
H176     H      0.161810000000     0.973560000000     0.552620000000     0.0358704  
H177     H      0.167480000000     0.959020000000     0.492140000000     0.0374711  
H178     H      0.282660000000     0.962280000000     0.558860000000     0.043389   
H179     H      0.346360000000     0.046330000000     0.497910000000     0.0369277  
H180     H      0.122390000000     0.041610000000     0.542450000000     0.0375102  
H181     H      0.784980000000     0.052840000000     0.439530000000     0.0438219  
H182     H      0.676620000000     0.953480000000     0.459680000000     0.0339943  
H183     H      0.678100000000     0.058110000000     0.493280000000     0.0338894  
H184     H      0.879190000000     0.059060000000     0.514100000000     0.0371521  
H185     H      0.622940000000     0.977040000000     0.438470000000     0.037153   
H186     H      0.834330000000     0.998420000000     0.431520000000     0.0338434  
H187     H      0.826820000000     0.033030000000     0.535800000000     0.0339451  
H188     H      0.898650000000     0.992210000000     0.437890000000     0.0395932  
H189     H      0.614650000000     0.055830000000     0.505000000000     0.0399014  
H190     H      0.721830000000     0.046340000000     0.434220000000     0.0439081  
H191     H      0.612600000000     0.949990000000     0.474810000000     0.0404121  
H192     H      0.786020000000     0.974090000000     0.519070000000     0.0399672  
H193     H      0.665970000000     0.963990000000     0.504110000000     0.0363782  
H194     H      0.891370000000     0.024920000000     0.543120000000     0.0407255  
H195     H      0.625530000000     0.051300000000     0.459890000000     0.0382493  
H196     H      0.846540000000     0.970110000000     0.466670000000     0.0383011  
H197     H      0.842320000000     0.989830000000     0.526580000000     0.0364727  
H198     H      0.723260000000     0.969820000000     0.515900000000     0.0400399  
H199     H      0.666420000000     0.024060000000     0.523090000000     0.0383005  
H200     H      0.883510000000     0.036120000000     0.440670000000     0.0383155  
H201     H      0.952410000000     0.721480000000     0.463370000000     0.040187   
H202     H      0.967190000000     0.835400000000     0.553400000000     0.034333   
H203     H      0.008810000000     0.829540000000     0.451620000000     0.0335582  
H204     H      0.959920000000     0.626310000000     0.546190000000     0.0376678  
H205     H      0.946540000000     0.886920000000     0.525250000000     0.0372312  
H206     H      0.041470000000     0.680910000000     0.489790000000     0.0335695  
H207     H      0.936050000000     0.677510000000     0.520840000000     0.0342744  
H208     H      0.040680000000     0.616240000000     0.480580000000     0.0385111  
H209     H      0.019470000000     0.893560000000     0.452010000000     0.0392662  
H210     H      0.949510000000     0.784660000000     0.461850000000     0.0435797  
H211     H      0.980090000000     0.899590000000     0.554780000000     0.0406791  
H212     H      0.026640000000     0.726900000000     0.547060000000     0.043827   
H213     H      0.011970000000     0.846840000000     0.545720000000     0.0365126  
H214     H      0.935300000000     0.612870000000     0.509180000000     0.0404462  
H215     H      0.974410000000     0.881760000000     0.452870000000     0.0385588  
H216     H      0.008410000000     0.666540000000     0.460030000000     0.0374524  
H217     H      0.948440000000     0.664550000000     0.477530000000     0.0359275  
H218     H      0.026140000000     0.790060000000     0.543340000000     0.0403243  
H219     H      0.035680000000     0.843460000000     0.487290000000     0.0379815  
H220     H      0.037200000000     0.629750000000     0.525000000000     0.0394475  
H221     H      0.964290000000     0.278040000000     0.547350000000     0.0432221  
H222     H      0.032180000000     0.176940000000     0.552160000000     0.0344234  
H223     H      0.999240000000     0.181210000000     0.447060000000     0.0337909  
H224     H      0.027220000000     0.381200000000     0.560350000000     0.0367388  
H225     H      0.059930000000     0.129040000000     0.522920000000     0.0365795  
H226     H      0.949640000000     0.328870000000     0.500420000000     0.0333522  
H227     H      0.055580000000     0.334520000000     0.530020000000     0.0342324  
H228     H      0.946310000000     0.393510000000     0.498500000000     0.0392469  
H229     H      0.994440000000     0.116250000000     0.445650000000     0.0389204  
H230     H      0.969090000000     0.215680000000     0.538230000000     0.0404054  
H231     H      0.027420000000     0.112310000000     0.551590000000     0.0407704  
H232     H      0.044740000000     0.295110000000     0.471250000000     0.0402965  
H233     H      0.989530000000     0.161120000000     0.540720000000     0.0374721  
H234     H      0.053300000000     0.399520000000     0.526530000000     0.040738   
H235     H      0.037970000000     0.131920000000     0.451690000000     0.0383047  
H236     H      0.981040000000     0.347640000000     0.471280000000     0.0385069  
H237     H      0.042110000000     0.351150000000     0.488240000000     0.037172   
H238     H      0.051950000000     0.232640000000     0.464850000000     0.0436842  
H239     H      0.970280000000     0.164330000000     0.479720000000     0.0383996  
H240     H      0.954400000000     0.376440000000     0.541190000000     0.0383024  
N1       N      0.903860000000     0.512470000000     0.999400000000    -0.167505   
N2       N      0.831220000000     0.516370000000     0.994090000000    -0.113439   
N3       N      0.683780000000     0.521240000000     0.006410000000    -0.11335    
N4       N      0.611830000000     0.509570000000     0.007910000000    -0.167606   
N5       N      0.111650000000     0.502140000000     0.018600000000    -0.167669   
N6       N      0.184340000000     0.499270000000     0.024110000000    -0.113301   
N7       N      0.331790000000     0.498440000000     0.009470000000    -0.112887   
N8       N      0.403820000000     0.490090000000     0.006160000000    -0.167366   
N9       N      0.506380000000     0.893730000000     0.005000000000    -0.167295   
N10      N      0.504570000000     0.821390000000     0.997770000000    -0.112813   
N11      N      0.491360000000     0.674020000000     0.003580000000    -0.113336   
N12      N      0.497020000000     0.601340000000     0.005250000000    -0.167558   
N13      N      0.502270000000     0.102090000000     0.992650000000    -0.167676   
N14      N      0.503160000000     0.175010000000     0.990620000000    -0.11344    
N15      N      0.521260000000     0.320810000000     0.007030000000    -0.113444   
N16      N      0.519550000000     0.393740000000     0.008500000000    -0.16781    
N17      N      0.521790000000     0.991970000000     0.603730000000    -0.167327   
N18      N      0.525300000000     0.986210000000     0.676710000000    -0.11338    
N19      N      0.508390000000     0.978940000000     0.824170000000    -0.113057   
N20      N      0.505430000000     0.989710000000     0.896560000000    -0.16692    
N21      N      0.503900000000     0.001930000000     0.105790000000    -0.167055   
N22      N      0.502900000000     0.002650000000     0.179010000000    -0.113232   
N23      N      0.484570000000     0.017830000000     0.325250000000    -0.113556   
N24      N      0.486540000000     0.014770000000     0.398420000000    -0.167484   
N25      N      0.997890000000     0.516060000000     0.613160000000    -0.167696   
N26      N      0.001880000000     0.526380000000     0.685360000000    -0.113193   
N27      N      0.020600000000     0.518610000000     0.832330000000    -0.113433   
N28      N      0.017680000000     0.514230000000     0.905190000000    -0.167794   
N29      N      0.001480000000     0.499600000000     0.113100000000    -0.167606   
N30      N      0.003280000000     0.492680000000     0.185640000000    -0.11326    
N31      N      0.991760000000     0.482890000000     0.333000000000    -0.113278   
N32      N      0.991830000000     0.493710000000     0.405220000000    -0.167645   
N33      N      0.401350000000     0.002330000000     0.518870000000    -0.16727    
N34      N      0.328530000000     0.002350000000     0.526830000000    -0.113321   
N35      N      0.180700000000     0.008300000000     0.513590000000    -0.112995   
N36      N      0.108180000000     0.001130000000     0.508350000000    -0.166865   
N37      N      0.607740000000     0.004940000000     0.483150000000    -0.167065   
N38      N      0.680080000000     0.007130000000     0.472090000000    -0.113321   
N39      N      0.827560000000     0.019740000000     0.482120000000    -0.113325   
N40      N      0.900300000000     0.015400000000     0.488650000000    -0.167123   
N41      N      0.992970000000     0.902080000000     0.500380000000    -0.167294   
N42      N      0.983810000000     0.829660000000     0.500930000000    -0.113308   
N43      N      0.990050000000     0.681940000000     0.510030000000    -0.113076   
N44      N      0.990770000000     0.609270000000     0.504160000000    -0.167145   
N45      N      0.015920000000     0.109620000000     0.496710000000    -0.167627   
N46      N      0.019030000000     0.182520000000     0.498670000000    -0.11346    
N47      N      0.001810000000     0.328130000000     0.518820000000    -0.113292   
N48      N      0.997890000000     0.401040000000     0.518530000000    -0.16757    
O1       O      0.008160000000     0.058830000000     0.526360000000    -0.400048   
O2       O      0.995050000000     0.954710000000     0.528190000000    -0.398171   
O3       O      0.053620000000     0.001740000000     0.532240000000    -0.398145   
O4       O      0.949450000000     0.013130000000     0.522310000000    -0.397855   
O5       O      0.954370000000     0.007730000000     0.464910000000    -0.397704   
O6       O      0.059070000000     0.001740000000     0.474600000000    -0.397065   
O7       O      0.003680000000     0.952600000000     0.471000000000    -0.39858    
O8       O      0.009700000000     0.057570000000     0.468500000000    -0.396705   
O9       O      0.021710000000     0.501340000000     0.456040000000    -0.401334   
O10      O      0.024830000000     0.510510000000     0.560490000000    -0.401468   
O11      O      0.025020000000     0.453690000000     0.513410000000    -0.399023   
O12      O      0.021380000000     0.558280000000     0.503480000000    -0.398508   
O13      O      0.963650000000     0.556410000000     0.506450000000    -0.398808   
O14      O      0.967230000000     0.451740000000     0.514000000000    -0.398667   
O15      O      0.967060000000     0.508920000000     0.562610000000    -0.397951   
O16      O      0.963950000000     0.499240000000     0.457660000000    -0.398215   
O17      O      0.512320000000     0.969030000000     0.549520000000    -0.397354   
O18      O      0.494820000000     0.980560000000     0.446300000000    -0.399121   
O19      O      0.556140000000     0.975360000000     0.488670000000    -0.396198   
O20      O      0.452220000000     0.974370000000     0.506090000000    -0.398743   
O21      O      0.453000000000     0.031640000000     0.513340000000    -0.397053   
O22      O      0.556750000000     0.032620000000     0.495930000000    -0.399566   
O23      O      0.496840000000     0.037960000000     0.452390000000    -0.396657   
O24      O      0.513980000000     0.026400000000     0.555820000000    -0.398336   
O25      O      0.533110000000     0.002580000000     0.053750000000    -0.396679   
O26      O      0.533650000000     0.995570000000     0.948600000000    -0.399047   
O27      O      0.532200000000     0.051030000000     0.996940000000    -0.399749   
O28      O      0.534510000000     0.946250000000     0.003970000000    -0.397388   
O29      O      0.476680000000     0.945080000000     0.004190000000    -0.399875   
O30      O      0.474400000000     0.049880000000     0.998590000000    -0.397897   
O31      O      0.475850000000     0.993950000000     0.948330000000    -0.396164   
O32      O      0.475360000000     0.999580000000     0.053620000000    -0.398934   
O33      O      0.999570000000     0.474840000000     0.059000000000    -0.398602   
O34      O      0.013670000000     0.481740000000     0.954910000000    -0.398776   
O35      O      0.058580000000     0.475560000000     0.013890000000    -0.398445   
O36      O      0.954430000000     0.481080000000     0.999990000000    -0.398413   
O37      O      0.956570000000     0.538010000000     0.009370000000    -0.400359   
O38      O      0.061350000000     0.533220000000     0.012790000000    -0.400236   
O39      O      0.010810000000     0.539290000000     0.958680000000    -0.399969   
O40      O      0.007310000000     0.531890000000     0.063470000000    -0.400153   
O41      O      0.513240000000     0.445610000000     0.036850000000    -0.398187   
O42      O      0.501000000000     0.550040000000     0.035230000000    -0.397923   
O43      O      0.455470000000     0.491530000000     0.035460000000    -0.399825   
O44      O      0.559810000000     0.504410000000     0.036650000000    -0.397955   
O45      O      0.560740000000     0.501200000000     0.978860000000    -0.401243   
O46      O      0.456020000000     0.493400000000     0.977580000000    -0.398681   
O47      O      0.504610000000     0.549390000000     0.977470000000    -0.400029   
O48      O      0.513340000000     0.444900000000     0.978960000000    -0.400082   


