data_structure

_audit_creation_method RASPA-1.0
_audit_creation_date 2023-6-5
_audit_author_name 'Poobodin Mano'

_cell_length_a    62.4571
_cell_length_b    61.3046
_cell_length_c    37.5532
_cell_angle_alpha 89.9424
_cell_angle_beta  90.0575
_cell_angle_gamma 119.926
_cell_volume      124616

_symmetry_cell_setting          triclinic
_symmetry_space_group_name_Hall 'P 1'
_symmetry_space_group_name_H-M  'P 1'
_symmetry_Int_Tables_number     1

_symmetry_equiv_pos_as_xyz 'x,y,z'

loop_
_atom_site_label
_atom_site_type_symbol
_atom_site_fract_x
_atom_site_fract_y
_atom_site_fract_z
_atom_site_charge
Br1      Br     0.761330000000     0.099900000000     0.601660000000    -0.240409   
Br2      Br     0.015380000000     0.460030000000     0.547460000000    -0.237117   
Br3      Br     0.998450000000     0.604810000000     0.496290000000    -0.235641   
Br4      Br     0.494630000000     0.574810000000     0.964810000000    -0.230305   
Br5      Br     0.300300000000     0.148950000000     0.286150000000    -0.187462   
Br6      Br     0.498070000000     0.412190000000     0.958170000000    -0.228339   
Br7      Br     0.671040000000     0.773270000000     0.683370000000    -0.238498   
Br8      Br     0.727470000000     0.893940000000     0.870560000000    -0.239207   
Br9      Br     0.865020000000     0.774950000000     0.084240000000    -0.236859   
Br10     Br     0.614160000000     0.840280000000     0.348130000000    -0.239225   
Br11     Br     0.047550000000     0.519980000000     0.880410000000    -0.234248   
Br12     Br     0.054270000000     0.491510000000     0.086110000000    -0.230425   
Br13     Br     0.932690000000     0.678510000000     0.165530000000    -0.240111   
Br14     Br     0.411170000000     0.217810000000     0.150700000000    -0.211056   
Br15     Br     0.309110000000     0.183890000000     0.323250000000    -0.187605   
Br16     Br     0.457410000000     0.020430000000     0.548880000000    -0.235651   
Br17     Br     0.977630000000     0.409010000000     0.917210000000    -0.229937   
Br18     Br     0.268020000000     0.365740000000     0.838600000000    -0.225106   
Br19     Br     0.448560000000     0.487760000000     0.859920000000    -0.200002   
Br20     Br     0.537270000000     0.502770000000     0.023800000000    -0.199323   
Br21     Br     0.881450000000     0.237390000000     0.041120000000    -0.230705   
Br22     Br     0.901520000000     0.221400000000     0.235070000000    -0.300065   
Br23     Br     0.229810000000     0.380020000000     0.687100000000    -0.23069    
Br24     Br     0.176020000000     0.297380000000     0.910870000000    -0.234354   
Br25     Br     0.132620000000     0.365670000000     0.214240000000    -0.237648   
Br26     Br     0.244640000000     0.421440000000     0.386000000000    -0.237518   
Br27     Br     0.573360000000     0.058890000000     0.867320000000    -0.239837   
Br28     Br     0.473890000000     0.049090000000     0.380970000000    -0.238674   
Br29     Br     0.774060000000     0.179560000000     0.151240000000    -0.230365   
Br30     Br     0.184270000000     0.923680000000     0.417090000000    -0.235586   
Br31     Br     0.165190000000     0.796210000000     0.226790000000    -0.239859   
Br32     Br     0.438930000000     0.942030000000     0.010910000000    -0.237575   
Br33     Br     0.788670000000     0.682790000000     0.722490000000    -0.236494   
Br34     Br     0.924090000000     0.717500000000     0.539970000000    -0.236366   
Br35     Br     0.610700000000     0.538350000000     0.411080000000    -0.240083   
Br36     Br     0.910150000000     0.771340000000     0.716890000000    -0.232767   
C1       C      0.903050000000     0.730480000000     0.656680000000     0.409926   
C2       C      0.814610000000     0.681160000000     0.594430000000     0.40164    
C3       C      0.839510000000     0.686630000000     0.688930000000     0.411708   
C4       C      0.879020000000     0.725390000000     0.562550000000     0.413099   
C5       C      0.140580000000     0.844650000000     0.803800000000     0.399113   
C6       C      0.235740000000     0.889090000000     0.840120000000     0.39793    
C7       C      0.199880000000     0.876370000000     0.752610000000     0.397508   
C8       C      0.175560000000     0.857140000000     0.889800000000     0.398622   
C9       C      0.477490000000     0.994020000000     0.969420000000     0.407183   
C10      C      0.574800000000     0.034380000000     0.986690000000     0.402432   
C11      C      0.531270000000     0.010260000000     0.908160000000     0.409911   
C12      C      0.521580000000     0.018280000000     0.047780000000     0.400965   
C13      C      0.232640000000     0.374910000000     0.333170000000     0.407521   
C14      C      0.145420000000     0.331030000000     0.266790000000     0.405804   
C15      C      0.167440000000     0.343640000000     0.363890000000     0.40052    
C16      C      0.210990000000     0.362250000000     0.236900000000     0.403088   
C17      C      0.802340000000     0.146660000000     0.147910000000     0.40884    
C18      C      0.900550000000     0.201380000000     0.146950000000     0.404066   
C19      C      0.848050000000     0.182360000000     0.077250000000     0.416586   
C20      C      0.857650000000     0.167400000000     0.213730000000     0.416701   
C21      C      0.576800000000     0.556960000000     0.453170000000     0.40832    
C22      C      0.478480000000     0.504800000000     0.444730000000     0.398736   
C23      C      0.525340000000     0.531630000000     0.519490000000     0.40162    
C24      C      0.530750000000     0.530700000000     0.378290000000     0.403811   
C25      C      0.148190000000     0.360340000000     0.802470000000     0.401299   
C26      C      0.214220000000     0.329420000000     0.802910000000     0.412801   
C27      C      0.183630000000     0.347310000000     0.873020000000     0.413881   
C28      C      0.179710000000     0.342440000000     0.731290000000     0.407651   
C29      C      0.363760000000     0.223430000000     0.747550000000     0.399927   
C30      C      0.413250000000     0.177940000000     0.706110000000     0.400624   
C31      C      0.398200000000     0.196070000000     0.794350000000     0.401523   
C32      C      0.379140000000     0.205270000000     0.658710000000     0.39958    
C33      C      0.015830000000     0.458260000000     0.962820000000     0.412601   
C34      C      0.978640000000     0.513900000000     0.012380000000     0.399419   
C35      C      0.996020000000     0.499680000000     0.920730000000     0.409573   
C36      C      0.999160000000     0.471930000000     0.054600000000     0.409998   
C37      C      0.663250000000     0.878560000000     0.304090000000     0.408745   
C38      C      0.717570000000     0.840650000000     0.253720000000     0.399512   
C39      C      0.695500000000     0.848150000000     0.345570000000     0.399884   
C40      C      0.684460000000     0.871060000000     0.212420000000     0.39992    
C41      C      0.879720000000     0.660970000000     0.126740000000     0.409384   
C42      C      0.840890000000     0.721060000000     0.128550000000     0.409114   
C43      C      0.855160000000     0.686900000000     0.056950000000     0.400678   
C44      C      0.865740000000     0.694920000000     0.198110000000     0.401239   
C45      C      0.546500000000     0.003160000000     0.446750000000     0.400135   
C46      C      0.507870000000     0.054800000000     0.505610000000     0.412744   
C47      C      0.522800000000     0.044740000000     0.410900000000     0.411984   
C48      C      0.531770000000     0.013930000000     0.539990000000     0.402038   
C49      C      0.346540000000     0.170320000000     0.234440000000     0.412125   
C50      C      0.382030000000     0.268250000000     0.212070000000     0.400382   
C51      C      0.360810000000     0.224510000000     0.292600000000     0.413327   
C52      C      0.367740000000     0.215160000000     0.153370000000     0.40084    
C53      C      0.465090000000     0.440500000000     0.955210000000     0.408802   
C54      C      0.515100000000     0.539540000000     0.931730000000     0.407544   
C55      C      0.492720000000     0.496300000000     0.012990000000     0.404408   
C56      C      0.485920000000     0.480660000000     0.874190000000     0.403222   
C57      C      0.212740000000     0.913150000000     0.290610000000     0.400764   
C58      C      0.159610000000     0.822660000000     0.350420000000     0.402367   
C59      C      0.168840000000     0.848620000000     0.256410000000     0.409409   
C60      C      0.204140000000     0.887750000000     0.384500000000     0.409378   
C61      C      0.025140000000     0.573800000000     0.470830000000     0.408238   
C62      C      0.981190000000     0.475900000000     0.502090000000     0.408387   
C63      C      0.001950000000     0.514700000000     0.416140000000     0.398024   
C64      C      0.004250000000     0.534880000000     0.554870000000     0.401999   
C65      C      0.856630000000     0.233990000000     0.643140000000     0.400115   
C66      C      0.811090000000     0.133790000000     0.648990000000     0.407463   
C67      C      0.839110000000     0.182540000000     0.576300000000     0.404411   
C68      C      0.828740000000     0.185350000000     0.716330000000     0.401278   
C69      C      0.643090000000     0.787090000000     0.802600000000     0.40136    
C70      C      0.690560000000     0.881420000000     0.753890000000     0.401388   
C71      C      0.673150000000     0.851150000000     0.844950000000     0.409291   
C72      C      0.660930000000     0.818130000000     0.711070000000     0.410073   
C73      C      0.800370000000     0.067910000000     0.661770000000    -0.031669   
C74      C      0.702290000000     0.944870000000     0.725020000000    -0.0301284  
C75      C      0.729110000000     0.917370000000     0.731440000000    -0.00630186 
C76      C      0.687750000000     0.916110000000     0.725520000000    -0.0059949  
C77      C      0.745400000000     0.998450000000     0.728040000000    -0.0553196  
C78      C      0.757900000000     0.013640000000     0.657200000000    -0.0546503  
C79      C      0.739440000000     0.980240000000     0.701260000000     0.0628665  
C80      C      0.741460000000     0.946110000000     0.730750000000    -0.0297836  
C81      C      0.763400000000     0.031860000000     0.683840000000     0.0618557  
C82      C      0.760960000000     0.064480000000     0.650920000000    -0.0620022  
C83      C      0.757190000000     0.024030000000     0.719260000000    -0.0517658  
C84      C      0.772030000000     0.093160000000     0.647310000000     0.117163   
C85      C      0.814290000000     0.096590000000     0.662450000000    -0.00197196 
C86      C      0.745940000000     0.988080000000     0.665940000000    -0.0525308  
C87      C      0.930650000000     0.414000000000     0.533030000000    -0.0311319  
C88      C      0.906810000000     0.296280000000     0.619060000000    -0.0298881  
C89      C      0.854400000000     0.273030000000     0.635880000000    -0.00716095 
C90      C      0.895280000000     0.275240000000     0.646810000000    -0.00722291 
C91      C      0.909580000000     0.331610000000     0.559810000000    -0.0552612  
C92      C      0.926210000000     0.378250000000     0.592700000000    -0.05433    
C93      C      0.905630000000     0.332680000000     0.596550000000     0.0628051  
C94      C      0.867280000000     0.294130000000     0.608400000000    -0.0300385  
C95      C      0.930580000000     0.377270000000     0.556060000000     0.0621284  
C96      C      0.969220000000     0.415860000000     0.547620000000    -0.061207   
C97      C      0.922040000000     0.353780000000     0.539870000000    -0.0521991  
C98      C      0.984090000000     0.438410000000     0.522640000000     0.1156     
C99      C      0.943020000000     0.435080000000     0.505710000000    -0.00626568 
C100     C      0.913910000000     0.356130000000     0.612650000000    -0.0525948  
C101     C      0.075860000000     0.639940000000     0.452060000000    -0.0314688  
C102     C      0.104900000000     0.763440000000     0.382350000000    -0.0303032  
C103     C      0.158330000000     0.785210000000     0.376830000000    -0.00568603 
C104     C      0.121400000000     0.792100000000     0.381280000000    -0.00582795 
C105     C      0.098650000000     0.718260000000     0.443080000000    -0.0519497  
C106     C      0.077040000000     0.682050000000     0.389430000000    -0.0508752  
C107     C      0.102440000000     0.725830000000     0.407370000000     0.0634379  
C108     C      0.140000000000     0.756940000000     0.378240000000    -0.0301938  
C109     C      0.073700000000     0.674420000000     0.425150000000     0.0625296  
C110     C      0.037750000000     0.640610000000     0.453890000000    -0.0617176  
C111     C      0.084380000000     0.692830000000     0.452030000000    -0.0540261  
C112     C      0.021960000000     0.611770000000     0.457490000000     0.116629   
C113     C      0.063090000000     0.611350000000     0.452880000000    -0.0036193  
C114     C      0.091200000000     0.707540000000     0.380490000000    -0.0546897  
C115     C      0.568070000000     0.604790000000     0.912290000000    -0.0313366  
C116     C      0.591450000000     0.723790000000     0.830800000000    -0.0301113  
C117     C      0.645390000000     0.751620000000     0.829290000000    -0.00616426 
C118     C      0.604830000000     0.752490000000     0.827810000000    -0.00602028 
C119     C      0.590790000000     0.683780000000     0.897560000000    -0.0518186  
C120     C      0.569290000000     0.645250000000     0.847070000000    -0.051073   
C121     C      0.593260000000     0.689890000000     0.861300000000     0.063174   
C122     C      0.629680000000     0.722930000000     0.832050000000    -0.0298211  
C123     C      0.566580000000     0.639140000000     0.883390000000     0.0622537  
C124     C      0.531210000000     0.607670000000     0.916040000000    -0.0616895  
C125     C      0.577680000000     0.658690000000     0.908630000000    -0.0541171  
C126     C      0.514520000000     0.579190000000     0.922290000000     0.116559   
C127     C      0.554300000000     0.576160000000     0.914890000000    -0.00290153 
C128     C      0.582590000000     0.670380000000     0.835990000000    -0.0548769  
C129     C      0.334400000000     0.105270000000     0.224150000000    -0.0321693  
C130     C      0.234210000000     0.979970000000     0.274340000000    -0.0302643  
C131     C      0.249710000000     0.943660000000     0.256610000000    -0.00679959 
C132     C      0.214880000000     0.952300000000     0.269080000000    -0.00626299 
C133     C      0.273260000000     0.027440000000     0.221760000000    -0.0517108  
C134     C      0.301810000000     0.052300000000     0.281410000000    -0.0518012  
C135     C      0.272630000000     0.013420000000     0.251670000000     0.062646   
C136     C      0.267790000000     0.971860000000     0.261540000000    -0.0305264  
C137     C      0.302390000000     0.066300000000     0.251570000000     0.0641015  
C138     C      0.301300000000     0.105040000000     0.259160000000    -0.0626592  
C139     C      0.287830000000     0.053710000000     0.221710000000    -0.0549633  
C140     C      0.318300000000     0.132370000000     0.270060000000     0.111889   
C141     C      0.351820000000     0.133300000000     0.232350000000    -0.00546754 
C142     C      0.286930000000     0.026140000000     0.281710000000    -0.0537175  
C143     C      0.420010000000     0.393030000000     0.007320000000    -0.0318316  
C144     C      0.422580000000     0.319990000000     0.161040000000    -0.0302928  
C145     C      0.375270000000     0.303660000000     0.195660000000    -0.00696357 
C146     C      0.418000000000     0.310440000000     0.199520000000    -0.00661419 
C147     C      0.424840000000     0.368920000000     0.114640000000    -0.0522344  
C148     C      0.413010000000     0.339720000000     0.052830000000    -0.0523835  
C149     C      0.412760000000     0.342640000000     0.117450000000     0.0625239  
C150     C      0.380480000000     0.313540000000     0.157330000000    -0.0301567  
C151     C      0.424910000000     0.365980000000     0.050000000000     0.0633223  
C152     C      0.458070000000     0.390430000000     0.008530000000    -0.0642996  
C153     C      0.431030000000     0.380580000000     0.081250000000    -0.0546887  
C154     C      0.463170000000     0.399000000000     0.969590000000     0.118722   
C155     C      0.425230000000     0.402290000000     0.968640000000    -0.00729943 
C156     C      0.407090000000     0.328080000000     0.086190000000    -0.0545163  
C157     C      0.642520000000     0.812590000000     0.614000000000    -0.031864   
C158     C      0.684550000000     0.813740000000     0.433020000000    -0.0287851  
C159     C      0.709680000000     0.865020000000     0.405240000000    -0.00654673 
C160     C      0.679720000000     0.817500000000     0.394260000000    -0.00676243 
C161     C      0.658520000000     0.814600000000     0.503430000000    -0.051773   
C162     C      0.696550000000     0.835200000000     0.553540000000    -0.0515716  
C163     C      0.682940000000     0.829660000000     0.491660000000     0.0629275  
C164     C      0.710400000000     0.857950000000     0.444230000000    -0.0291492  
C165     C      0.672060000000     0.820670000000     0.565340000000     0.0618382  
C166     C      0.672580000000     0.799420000000     0.619690000000    -0.0625912  
C167     C      0.653110000000     0.809550000000     0.539610000000    -0.0530873  
C168     C      0.675530000000     0.803730000000     0.660110000000     0.118561   
C169     C      0.641390000000     0.816180000000     0.654150000000    -0.00168931 
C170     C      0.702080000000     0.839210000000     0.517200000000    -0.0539158  
C171     C      0.658010000000     0.865840000000     0.935990000000    -0.0313784  
C172     C      0.703170000000     0.890420000000     0.120730000000    -0.0305353  
C173     C      0.657120000000     0.863460000000     0.160500000000    -0.00731308 
C174     C      0.701650000000     0.898150000000     0.159080000000    -0.00673742 
C175     C      0.679320000000     0.893380000000     0.042120000000    -0.0526096  
C176     C      0.680810000000     0.851640000000     0.015290000000    -0.0520839  
C177     C      0.679920000000     0.876020000000     0.065810000000     0.0622774  
C178     C      0.660010000000     0.857030000000     0.122170000000    -0.0298033  
C179     C      0.679070000000     0.868360000000     0.991620000000     0.0620549  
C180     C      0.701040000000     0.878280000000     0.935670000000    -0.061818   
C181     C      0.679300000000     0.889880000000     0.005340000000    -0.0545823  
C182     C      0.699950000000     0.867920000000     0.898010000000     0.117472   
C183     C      0.653300000000     0.854210000000     0.898930000000    -0.00344295 
C184     C      0.681620000000     0.855570000000     0.052050000000    -0.0548732  
C185     C      0.793930000000     0.742330000000     0.136490000000    -0.0318203  
C186     C      0.772540000000     0.835120000000     0.227150000000    -0.0300496  
C187     C      0.718710000000     0.806270000000     0.221870000000    -0.00671852 
C188     C      0.757920000000     0.848860000000     0.231430000000    -0.00659261 
C189     C      0.778620000000     0.802100000000     0.155670000000    -0.0523913  
C190     C      0.795910000000     0.780130000000     0.204750000000    -0.0525168  
C191     C      0.774060000000     0.802810000000     0.192020000000     0.0626022  
C192     C      0.735540000000     0.794950000000     0.218230000000    -0.0299136  
C193     C      0.800030000000     0.778960000000     0.168330000000     0.0623276  
C194     C      0.834030000000     0.779380000000     0.136410000000    -0.0622091  
C195     C      0.791440000000     0.790250000000     0.143780000000    -0.0548832  
C196     C      0.847210000000     0.764140000000     0.129370000000     0.117409   
C197     C      0.803660000000     0.724070000000     0.134720000000    -0.000201086
C198     C      0.783010000000     0.791920000000     0.216630000000    -0.0555095  
C199     C      0.648560000000     0.925230000000     0.344960000000    -0.031367   
C200     C      0.551380000000     0.951150000000     0.402140000000    -0.0298023  
C201     C      0.583730000000     0.000890000000     0.432480000000    -0.0066432  
C202     C      0.540540000000     0.961970000000     0.428620000000    -0.00679896 
C203     C      0.598340000000     0.935930000000     0.411500000000    -0.052577   
C204     C      0.599140000000     0.934480000000     0.337100000000    -0.0522089  
C205     C      0.587780000000     0.947510000000     0.391710000000     0.0630609  
C206     C      0.592040000000     0.987970000000     0.405550000000    -0.0297448  
C207     C      0.609780000000     0.922940000000     0.356920000000     0.0620137  
C208     C      0.611470000000     0.884800000000     0.347580000000    -0.0616993  
C209     C      0.609360000000     0.923850000000     0.394410000000    -0.0544553  
C210     C      0.622580000000     0.872140000000     0.324500000000     0.116262   
C211     C      0.661270000000     0.916160000000     0.319330000000    -0.00420821 
C212     C      0.588300000000     0.946800000000     0.354250000000    -0.0556213  
C213     C      0.973500000000     0.497780000000     0.827250000000    -0.0313797  
C214     C      0.979730000000     0.528820000000     0.645680000000    -0.029681   
C215     C      0.027810000000     0.549340000000     0.611310000000    -0.00652978 
C216     C      0.983470000000     0.539700000000     0.607960000000    -0.00692982 
C217     C      0.994880000000     0.511970000000     0.715770000000    -0.0543056  
C218     C      0.998840000000     0.548500000000     0.764070000000    -0.0519204  
C219     C      0.999710000000     0.535630000000     0.703100000000     0.0631718  
C220     C      0.022430000000     0.538390000000     0.649030000000    -0.0299881  
C221     C      0.994710000000     0.525240000000     0.776940000000     0.0620754  
C222     C      0.017800000000     0.523630000000     0.827110000000    -0.0614736  
C223     C      0.992860000000     0.506980000000     0.752360000000    -0.0534905  
C224     C      0.019500000000     0.524530000000     0.867970000000     0.116939   
C225     C      0.972020000000     0.497500000000     0.867900000000    -0.00472353 
C226     C      0.001380000000     0.553660000000     0.727540000000    -0.0524693  
C227     C      0.976770000000     0.462150000000     0.143940000000    -0.0319593  
C228     C      0.020580000000     0.501290000000     0.327810000000    -0.0297285  
C229     C      0.980570000000     0.506780000000     0.358300000000    -0.00697237 
C230     C      0.025190000000     0.516290000000     0.362280000000    -0.00742549 
C231     C      0.003210000000     0.509150000000     0.241240000000    -0.0515337  
C232     C      0.994960000000     0.460580000000     0.229040000000    -0.0517532  
C233     C      0.000200000000     0.493510000000     0.270310000000     0.0626034  
C234     C      0.978160000000     0.491960000000     0.324250000000    -0.029924   
C235     C      0.998730000000     0.476490000000     0.200010000000     0.0633456  
C236     C      0.021970000000     0.484120000000     0.144940000000    -0.0638908  
C237     C      0.002270000000     0.500720000000     0.206360000000    -0.0543812  
C238     C      0.022390000000     0.471550000000     0.109920000000     0.117994   
C239     C      0.976320000000     0.449360000000     0.108570000000    -0.00695425 
C240     C      0.995430000000     0.468840000000     0.263900000000    -0.0541601  
C241     C      0.885160000000     0.602290000000     0.120350000000    -0.0316731  
C242     C      0.973890000000     0.569190000000     0.044430000000    -0.0300003  
C243     C      0.942430000000     0.514900000000     0.035780000000    -0.00669354 
C244     C      0.985970000000     0.552830000000     0.041980000000    -0.00689352 
C245     C      0.934910000000     0.572780000000     0.106470000000    -0.0522278  
C246     C      0.922670000000     0.597710000000     0.054960000000    -0.0521227  
C247     C      0.939040000000     0.570320000000     0.070440000000     0.0628321  
C248     C      0.932770000000     0.533330000000     0.038460000000    -0.0299041  
C249     C      0.918490000000     0.600140000000     0.091000000000     0.0623227  
C250     C      0.926090000000     0.638050000000     0.121100000000    -0.0627723  
C251     C      0.924790000000     0.587590000000     0.116800000000    -0.0546511  
C252     C      0.917020000000     0.657070000000     0.124110000000     0.118282   
C253     C      0.872520000000     0.618110000000     0.122280000000    -0.00175415 
C254     C      0.932890000000     0.582960000000     0.044640000000    -0.0552905  
C255     C      0.356390000000     0.202950000000     0.056710000000    -0.0340395  
C256     C      0.410270000000     0.217090000000     0.884940000000    -0.030648   
C257     C      0.391810000000     0.169550000000     0.847760000000    -0.00673576 
C258     C      0.421460000000     0.216110000000     0.849280000000    -0.00608201 
C259     C      0.372220000000     0.182310000000     0.955660000000    -0.0532747  
C260     C      0.410730000000     0.217100000000     0.998350000000    -0.0524531  
C261     C      0.396390000000     0.195560000000     0.941470000000     0.0612645  
C262     C      0.382640000000     0.171770000000     0.884690000000    -0.0305294  
C263     C      0.386730000000     0.204200000000     0.012470000000     0.0621791  
C264     C      0.395160000000     0.206080000000     0.076520000000    -0.065236   
C265     C      0.367610000000     0.186060000000     0.990910000000    -0.053719   
C266     C      0.396680000000     0.222380000000     0.108040000000     0.115303   
C267     C      0.354770000000     0.216120000000     0.090620000000    -0.00159154 
C268     C      0.415610000000     0.212130000000     0.964010000000    -0.0517042  
C269     C      0.381110000000     0.234280000000     0.385740000000    -0.0309716  
C270     C      0.346430000000     0.195620000000     0.571240000000    -0.0302307  
C271     C      0.395970000000     0.225540000000     0.601220000000    -0.00674884 
C272     C      0.352500000000     0.186980000000     0.606180000000    -0.00640798 
C273     C      0.366670000000     0.197690000000     0.486520000000    -0.0520188  
C274     C      0.354700000000     0.234460000000     0.467580000000    -0.052658   
C275     C      0.363850000000     0.212020000000     0.513100000000     0.0626279  
C276     C      0.387430000000     0.231770000000     0.566560000000    -0.0297421  
C277     C      0.358580000000     0.220850000000     0.440890000000     0.0626938  
C278     C      0.336580000000     0.206700000000     0.385220000000    -0.0595788  
C279     C      0.363860000000     0.201830000000     0.450730000000    -0.0546656  
C280     C      0.334430000000     0.214510000000     0.346970000000     0.109665   
C281     C      0.380900000000     0.244280000000     0.348760000000    -0.00530654 
C282     C      0.357050000000     0.229950000000     0.503500000000    -0.0551332  
C283     C      0.506810000000     0.106600000000     0.555500000000    -0.0307452  
C284     C      0.422030000000     0.129750000000     0.662220000000    -0.0300322  
C285     C      0.452880000000     0.180620000000     0.689500000000    -0.0070789  
C286     C      0.413780000000     0.138450000000     0.694900000000    -0.00686264 
C287     C      0.453000000000     0.133220000000     0.597300000000    -0.0549792  
C288     C      0.478740000000     0.109170000000     0.619610000000    -0.0548915  
C289     C      0.457940000000     0.132540000000     0.633770000000     0.0627538  
C290     C      0.459770000000     0.170330000000     0.657030000000    -0.0299793  
C291     C      0.473480000000     0.109470000000     0.583150000000     0.0627367  
C292     C      0.466850000000     0.069350000000     0.562850000000    -0.0607446  
C293     C      0.460730000000     0.121730000000     0.572280000000    -0.0522848  
C294     C      0.471510000000     0.055380000000     0.532550000000     0.115853   
C295     C      0.513090000000     0.095540000000     0.523580000000    -0.00577877 
C296     C      0.470990000000     0.120620000000     0.644580000000    -0.052626   
C297     C      0.062320000000     0.445790000000     0.920290000000    -0.0307106  
C298     C      0.091680000000     0.357540000000     0.831710000000    -0.0302008  
C299     C      0.139120000000     0.395370000000     0.802710000000    -0.00712106 
C300     C      0.104460000000     0.350440000000     0.802910000000    -0.00698126 
C301     C      0.072980000000     0.403430000000     0.836740000000    -0.0512892  
C302     C      0.072020000000     0.396600000000     0.910490000000    -0.0515579  
C303     C      0.085020000000     0.391470000000     0.851480000000     0.0632885  
C304     C      0.125580000000     0.401100000000     0.831860000000    -0.0298442  
C305     C      0.059950000000     0.408550000000     0.895730000000     0.0637808  
C306     C      0.022390000000     0.409120000000     0.910200000000    -0.0611287  
C307     C      0.060730000000     0.412120000000     0.858550000000    -0.0540608  
C308     C      0.009760000000     0.417500000000     0.937900000000     0.116608   
C309     C      0.052600000000     0.455080000000     0.950360000000    -0.0050247  
C310     C      0.084670000000     0.388310000000     0.888690000000    -0.0541284  
C311     C      0.240480000000     0.285930000000     0.806520000000    -0.0308325  
C312     C      0.348140000000     0.273950000000     0.761100000000    -0.0301115  
C313     C      0.325530000000     0.219790000000     0.772210000000    -0.00678601 
C314     C      0.364680000000     0.262410000000     0.766570000000    -0.00677051 
C315     C      0.304610000000     0.277470000000     0.815020000000    -0.0518272  
C316     C      0.285940000000     0.287490000000     0.753250000000    -0.0522087  
C317     C      0.310200000000     0.271300000000     0.781760000000     0.0626446  
C318     C      0.310850000000     0.233330000000     0.766420000000    -0.030032   
C319     C      0.280100000000     0.293380000000     0.786560000000     0.0632592  
C320     C      0.274770000000     0.328180000000     0.805110000000    -0.0609259  
C321     C      0.289680000000     0.288390000000     0.817540000000    -0.0548062  
C322     C      0.257980000000     0.339860000000     0.801740000000     0.11671    
C323     C      0.221330000000     0.293890000000     0.799900000000    -0.0024799  
C324     C      0.300860000000     0.276520000000     0.750740000000    -0.0547609  
C325     C      0.505970000000     0.485330000000     0.784030000000    -0.0330118  
C326     C      0.502900000000     0.535240000000     0.608230000000    -0.0305173  
C327     C      0.536390000000     0.520350000000     0.576890000000    -0.00688661 
C328     C      0.517660000000     0.548590000000     0.574710000000    -0.00613933 
C329     C      0.518220000000     0.531730000000     0.694300000000    -0.0521917  
C330     C      0.477160000000     0.483680000000     0.702780000000    -0.0523774  
C331     C      0.506060000000     0.517390000000     0.664220000000     0.0629028  
C332     C      0.521180000000     0.508190000000     0.610220000000    -0.0297228  
C333     C      0.490460000000     0.497240000000     0.732740000000     0.0636376  
C334     C      0.471460000000     0.493650000000     0.790510000000    -0.0631499  
C335     C      0.510280000000     0.521960000000     0.728420000000    -0.054686   
C336     C      0.461810000000     0.476130000000     0.822840000000     0.113053   
C337     C      0.497970000000     0.468670000000     0.817220000000    -0.00216606 
C338     C      0.484600000000     0.493780000000     0.668710000000    -0.0546086  
C339     C      0.484930000000     0.508570000000     0.107380000000    -0.0341952  
C340     C      0.517660000000     0.505390000000     0.287270000000    -0.029785   
C341     C      0.543470000000     0.554350000000     0.321650000000    -0.00739017 
C342     C      0.528990000000     0.507610000000     0.323950000000    -0.00609512 
C343     C      0.514410000000     0.535170000000     0.211510000000    -0.0534636  
C344     C      0.526450000000     0.503190000000     0.174780000000    -0.0521779  
C345     C      0.527410000000     0.525010000000     0.229290000000     0.062659   
C346     C      0.532980000000     0.550190000000     0.283760000000    -0.0296915  
C347     C      0.513500000000     0.513160000000     0.156930000000     0.0628026  
C348     C      0.525240000000     0.512740000000     0.094880000000    -0.0652418  
C349     C      0.508190000000     0.529900000000     0.175510000000    -0.0531418  
C350     C      0.514850000000     0.495110000000     0.063130000000     0.115739   
C351     C      0.473950000000     0.493660000000     0.072780000000    -0.000637572
C352     C      0.534010000000     0.509690000000     0.209950000000    -0.0518131  
C353     C      0.812350000000     0.164400000000     0.997700000000    -0.0357286  
C354     C      0.844650000000     0.198140000000     0.812660000000    -0.0305154  
C355     C      0.800810000000     0.174710000000     0.767490000000    -0.00697533 
C356     C      0.847040000000     0.189880000000     0.775380000000    -0.00508596 
C357     C      0.827410000000     0.168860000000     0.885310000000    -0.0519919  
C358     C      0.811030000000     0.198500000000     0.918900000000    -0.0524378  
C359     C      0.818820000000     0.181930000000     0.864610000000     0.0628566  
C360     C      0.800930000000     0.182520000000     0.806240000000    -0.0299657  
C361     C      0.819500000000     0.185260000000     0.939500000000     0.064228   
C362     C      0.844810000000     0.209640000000     0.988750000000    -0.0645278  
C363     C      0.828390000000     0.170980000000     0.922260000000    -0.0549029  
C364     C      0.848420000000     0.210130000000     0.029280000000     0.118493   
C365     C      0.833530000000     0.164030000000     0.017910000000    -0.00324993 
C366     C      0.811100000000     0.197310000000     0.881740000000    -0.0534539  
C367     C      0.848260000000     0.147330000000     0.303330000000    -0.0343763  
C368     C      0.857930000000     0.169450000000     0.488760000000    -0.0306913  
C369     C      0.829720000000     0.191840000000     0.516470000000    -0.00599756 
C370     C      0.862890000000     0.179560000000     0.526660000000    -0.00423621 
C371     C      0.833770000000     0.166330000000     0.407320000000    -0.0538524  
C372     C      0.881600000000     0.189410000000     0.379470000000    -0.0528351  
C373     C      0.854040000000     0.181890000000     0.429330000000     0.0628724  
C374     C      0.827820000000     0.182490000000     0.478180000000    -0.0301675  
C375     C      0.861540000000     0.174290000000     0.357300000000     0.0632953  
C376     C      0.873450000000     0.193620000000     0.298730000000    -0.0696627  
C377     C      0.837430000000     0.163210000000     0.371400000000    -0.0533472  
C378     C      0.885020000000     0.190880000000     0.264640000000     0.130251   
C379     C      0.857940000000     0.144230000000     0.267140000000    -0.00320055 
C380     C      0.877860000000     0.193590000000     0.414760000000    -0.0523278  
C381     C      0.163350000000     0.316650000000     0.637840000000    -0.0316812  
C382     C      0.153590000000     0.357630000000     0.456610000000    -0.027267   
C383     C      0.151140000000     0.315590000000     0.415560000000    -0.0053626  
C384     C      0.159640000000     0.361820000000     0.416790000000    -0.00853612 
C385     C      0.180290000000     0.336490000000     0.524620000000    -0.0510291  
C386     C      0.145870000000     0.339890000000     0.568290000000    -0.051474   
C387     C      0.160950000000     0.338480000000     0.509070000000     0.0641601  
C388     C      0.144030000000     0.314560000000     0.454720000000    -0.0292972  
C389     C      0.165820000000     0.338960000000     0.583790000000     0.062407   
C390     C      0.193180000000     0.360660000000     0.633170000000    -0.0622042  
C391     C      0.182560000000     0.336320000000     0.561560000000    -0.0540207  
C392     C      0.194860000000     0.364470000000     0.673810000000     0.116111   
C393     C      0.160210000000     0.317600000000     0.677960000000    -0.00224363 
C394     C      0.143150000000     0.339250000000     0.531240000000    -0.0549817  
C395     C      0.205620000000     0.375550000000     0.962400000000    -0.0317     
C396     C      0.212010000000     0.342890000000     0.148200000000    -0.0306631  
C397     C      0.229970000000     0.390700000000     0.185020000000    -0.00514167 
C398     C      0.224400000000     0.347310000000     0.184720000000    -0.00581465 
C399     C      0.229680000000     0.365980000000     0.065360000000    -0.0516948  
C400     C      0.181270000000     0.353440000000     0.048320000000    -0.0507819  
C401     C      0.213290000000     0.363300000000     0.092640000000     0.0639315  
C402     C      0.217760000000     0.385490000000     0.148300000000    -0.0314595  
C403     C      0.197840000000     0.356720000000     0.020970000000     0.0631029  
C404     C      0.186440000000     0.330400000000     0.968730000000    -0.0617993  
C405     C      0.222040000000     0.362460000000     0.029850000000    -0.0540554  
C406     C      0.174010000000     0.325580000000     0.931930000000     0.117883   
C407     C      0.193570000000     0.373340000000     0.926340000000    -0.00416072 
C408     C      0.188760000000     0.356410000000     0.083920000000    -0.0547958  
C409     C      0.089610000000     0.283370000000     0.215210000000    -0.0316387  
C410     C      0.959030000000     0.246030000000     0.196440000000    -0.0176951  
C411     C      0.941780000000     0.205330000000     0.143400000000    -0.00649988 
C412     C      0.933330000000     0.236300000000     0.179910000000    -0.0348052  
C413     C      0.019910000000     0.269920000000     0.164270000000    -0.0512819  
C414     C      0.030040000000     0.262500000000     0.234360000000    -0.0513578  
C415     C      0.000440000000     0.253590000000     0.186470000000     0.0632593  
C416     C      0.965110000000     0.214950000000     0.166050000000    -0.0276608  
C417     C      0.049360000000     0.279680000000     0.212660000000     0.062058   
C418     C      0.086290000000     0.320580000000     0.220810000000    -0.0621759  
C419     C      0.044210000000     0.282550000000     0.176920000000    -0.0537015  
C420     C      0.111060000000     0.334950000000     0.241030000000     0.116301   
C421     C      0.112060000000     0.293010000000     0.239570000000    -0.00182821 
C422     C      0.005860000000     0.249240000000     0.221350000000    -0.0550638  
C423     C      0.290940000000     0.384700000000     0.378440000000    -0.0315941  
C424     C      0.415100000000     0.490040000000     0.420840000000    -0.0298925  
C425     C      0.439950000000     0.463590000000     0.446820000000    -0.00702381 
C426     C      0.438570000000     0.504190000000     0.443330000000    -0.00747507 
C427     C      0.356780000000     0.438090000000     0.437290000000    -0.0521151  
C428     C      0.350120000000     0.435080000000     0.363430000000    -0.0522338  
C429     C      0.377450000000     0.449760000000     0.414960000000     0.0624949  
C430     C      0.416570000000     0.451250000000     0.423910000000    -0.0298687  
C431     C      0.329420000000     0.423750000000     0.385780000000     0.0619996  
C432     C      0.290970000000     0.423830000000     0.380710000000    -0.06203    
C433     C      0.332970000000     0.425120000000     0.422970000000    -0.0543897  
C434     C      0.266880000000     0.413600000000     0.359240000000     0.116956   
C435     C      0.267970000000     0.371860000000     0.354870000000    -0.00292924 
C436     C      0.373970000000     0.447890000000     0.377780000000    -0.0551446  
C437     C      0.527960000000     0.981230000000     0.818320000000    -0.0311972  
C438     C      0.549540000000     0.022730000000     0.633550000000    -0.0303245  
C439     C      0.516070000000     0.981410000000     0.587530000000    -0.00617927 
C440     C      0.556580000000     0.021920000000     0.594830000000    -0.00604833 
C441     C      0.546740000000     0.992180000000     0.706730000000    -0.0525592  
C442     C      0.512930000000     0.003480000000     0.738280000000    -0.0516733  
C443     C      0.531040000000     0.996620000000     0.685060000000     0.0630497  
C444     C      0.510760000000     0.983290000000     0.626910000000    -0.0305653  
C445     C      0.528520000000     0.998860000000     0.759960000000     0.0621125  
C446     C      0.547340000000     0.025990000000     0.810430000000    -0.0620029  
C447     C      0.545840000000     0.993650000000     0.743770000000    -0.0543881  
C448     C      0.542640000000     0.030660000000     0.849060000000     0.117518   
C449     C      0.521490000000     0.982300000000     0.857220000000    -0.00435334 
C450     C      0.514360000000     0.002760000000     0.701180000000    -0.0551179  
C451     C      0.544890000000     0.071810000000     0.321820000000    -0.0321156  
C452     C      0.511390000000     0.040220000000     0.136080000000    -0.0304753  
C453     C      0.526570000000     0.005660000000     0.107850000000    -0.00648791 
C454     C      0.519930000000     0.043350000000     0.097390000000    -0.00499449 
C455     C      0.540570000000     0.059270000000     0.208820000000    -0.0533833  
C456     C      0.507560000000     0.021560000000     0.254430000000    -0.0503852  
C457     C      0.524350000000     0.035420000000     0.194910000000     0.0632965  
C458     C      0.518850000000     0.005780000000     0.146520000000    -0.0300444  
C459     C      0.523660000000     0.045570000000     0.268520000000     0.0610105  
C460     C      0.500050000000     0.047830000000     0.319120000000    -0.0632822  
C461     C      0.540100000000     0.064500000000     0.244880000000    -0.0522476  
C462     C      0.496830000000     0.040490000000     0.358690000000     0.119428   
C463     C      0.541820000000     0.075380000000     0.361850000000    -0.00267304 
C464     C      0.507340000000     0.016670000000     0.218010000000    -0.0550044  
C465     C      0.745550000000     0.095560000000     0.114390000000    -0.0314331  
C466     C      0.634800000000     0.080160000000     0.022460000000    -0.0297364  
C467     C      0.611450000000     0.029080000000     0.994440000000    -0.00754533 
C468     C      0.616310000000     0.072370000000     0.991680000000    -0.00746562 
C469     C      0.692040000000     0.087400000000     0.033700000000    -0.0525373  
C470     C      0.683700000000     0.081870000000     0.107150000000    -0.0524983  
C471     C      0.667740000000     0.074780000000     0.046520000000     0.0625711  
C472     C      0.630250000000     0.038290000000     0.024930000000    -0.0296718  
C473     C      0.708000000000     0.094380000000     0.094330000000     0.062234   
C474     C      0.740800000000     0.132560000000     0.120230000000    -0.0621493  
C475     C      0.712040000000     0.097290000000     0.057280000000    -0.0544137  
C476     C      0.759840000000     0.142920000000     0.150590000000     0.116046   
C477     C      0.764540000000     0.104900000000     0.144600000000    -0.00730309 
C478     C      0.663700000000     0.072270000000     0.083570000000    -0.0550846  
C479     C      0.223310000000     0.883110000000     0.473280000000    -0.0320392  
C480     C      0.210370000000     0.906590000000     0.662060000000    -0.030058   
C481     C      0.205320000000     0.860990000000     0.694840000000    -0.00650042 
C482     C      0.199640000000     0.899640000000     0.699640000000    -0.0068639  
C483     C      0.189930000000     0.873020000000     0.580300000000    -0.0519314  
C484     C      0.235100000000     0.911070000000     0.553990000000    -0.0524712  
C485     C      0.208850000000     0.888030000000     0.604190000000     0.0622125  
C486     C      0.216160000000     0.870630000000     0.657780000000    -0.0300102  
C487     C      0.215890000000     0.896590000000     0.530170000000     0.0629637  
C488     C      0.200800000000     0.906170000000     0.475860000000    -0.0635728  
C489     C      0.193430000000     0.877000000000     0.543590000000    -0.0547518  
C490     C      0.208190000000     0.915350000000     0.437460000000     0.117642   
C491     C      0.231240000000     0.891770000000     0.434820000000    -0.00658673 
C492     C      0.231800000000     0.906700000000     0.590680000000    -0.0546312  
C493     C      0.137420000000     0.839540000000     0.166930000000    -0.0313864  
C494     C      0.171390000000     0.832680000000     0.981370000000    -0.0303726  
C495     C      0.158420000000     0.866030000000     0.943480000000    -0.00743798 
C496     C      0.165540000000     0.828730000000     0.941490000000    -0.00666748 
C497     C      0.137750000000     0.824190000000     0.054970000000    -0.0519808  
C498     C      0.179180000000     0.859460000000     0.092830000000    -0.0520837  
C499     C      0.158190000000     0.842750000000     0.036370000000     0.0624916  
C500     C      0.164230000000     0.868100000000     0.983310000000    -0.0298008  
C501     C      0.158480000000     0.841350000000     0.111490000000     0.0624549  
C502     C      0.163840000000     0.821640000000     0.163830000000    -0.0627779  
C503     C      0.137940000000     0.823200000000     0.092170000000    -0.0544767  
C504     C      0.171990000000     0.827270000000     0.202880000000     0.118924   
C505     C      0.141870000000     0.845100000000     0.206910000000    -0.00173068 
C506     C      0.179250000000     0.860020000000     0.055620000000    -0.0549002  
C507     C      0.415440000000     0.988030000000     0.949390000000    -0.0314445  
C508     C      0.297650000000     0.897480000000     0.866010000000    -0.0299067  
C509     C      0.272310000000     0.926670000000     0.863510000000    -0.0066058  
C510     C      0.269530000000     0.883400000000     0.862540000000    -0.00683552 
C511     C      0.336710000000     0.936170000000     0.933850000000    -0.052337   
C512     C      0.375050000000     0.949440000000     0.885050000000    -0.0522772  
C513     C      0.331280000000     0.932210000000     0.897450000000     0.0622927  
C514     C      0.300340000000     0.938110000000     0.866720000000    -0.0300305  
C515     C      0.380440000000     0.952940000000     0.921540000000     0.0618704  
C516     C      0.408880000000     0.946330000000     0.957570000000    -0.0621316  
C517     C      0.361040000000     0.946580000000     0.945900000000    -0.0548287  
C518     C      0.436410000000     0.955800000000     0.965080000000     0.117033   
C519     C      0.443470000000     0.000660000000     0.952310000000    -0.00233734 
C520     C      0.350730000000     0.939320000000     0.872960000000    -0.0553551  
C521     C      0.832500000000     0.653320000000     0.776650000000    -0.0308675  
C522     C      0.826160000000     0.672950000000     0.966830000000    -0.0307305  
C523     C      0.875320000000     0.695030000000     0.998310000000    -0.0065714  
C524     C      0.828830000000     0.665820000000     0.004990000000    -0.005084   
C525     C      0.830940000000     0.654510000000     0.890470000000    -0.0516807  
C526     C      0.849690000000     0.698860000000     0.850950000000    -0.0510095  
C527     C      0.844070000000     0.677710000000     0.908060000000     0.0624223  
C528     C      0.870270000000     0.699840000000     0.960040000000    -0.0303274  
C529     C      0.837080000000     0.675650000000     0.833240000000     0.0634638  
C530     C      0.815000000000     0.680130000000     0.783070000000    -0.0616615  
C531     C      0.826930000000     0.653380000000     0.853720000000    -0.0538401  
C532     C      0.819590000000     0.689090000000     0.744210000000     0.118612   
C533     C      0.835510000000     0.657400000000     0.736190000000    -0.00116193 
C534     C      0.852710000000     0.699990000000     0.887940000000    -0.0526091  
C535     C      0.868950000000     0.733850000000     0.472640000000    -0.0324386  
C536     C      0.894890000000     0.721230000000     0.285470000000    -0.0288301  
C537     C      0.847700000000     0.681550000000     0.258120000000    -0.00642633 
C538     C      0.894030000000     0.709120000000     0.249570000000    -0.00847579 
C539     C      0.870440000000     0.692430000000     0.372240000000    -0.0514758  
C540     C      0.889490000000     0.742730000000     0.391680000000    -0.0521176  
C541     C      0.877150000000     0.710730000000     0.345580000000     0.0627753  
C542     C      0.850580000000     0.695250000000     0.293490000000    -0.0301596  
C543     C      0.883970000000     0.724610000000     0.418260000000     0.0629318  
C544     C      0.899110000000     0.719410000000     0.476400000000    -0.065032   
C545     C      0.873300000000     0.699130000000     0.408240000000    -0.0539899  
C546     C      0.908530000000     0.732820000000     0.512100000000     0.119563   
C547     C      0.877700000000     0.747410000000     0.508640000000    -0.00584993 
C548     C      0.885660000000     0.735880000000     0.355730000000    -0.0543424  
C549     C      0.641720000000     0.610580000000     0.469840000000    -0.0314649  
C550     C      0.756970000000     0.629730000000     0.552460000000    -0.0302524  
C551     C      0.779510000000     0.683270000000     0.568690000000    -0.00574697 
C552     C      0.784960000000     0.645110000000     0.558280000000    -0.00596921 
C553     C      0.718220000000     0.632580000000     0.488600000000    -0.0524214  
C554     C      0.678790000000     0.605510000000     0.535310000000    -0.0513721  
C555     C      0.722940000000     0.631850000000     0.524910000000     0.0629783  
C556     C      0.751900000000     0.665840000000     0.562530000000    -0.0301703  
C557     C      0.674050000000     0.606500000000     0.499050000000     0.0622192  
C558     C      0.643780000000     0.572840000000     0.462440000000    -0.0624672  
C559     C      0.694030000000     0.619990000000     0.475640000000    -0.0546349  
C560     C      0.615860000000     0.556320000000     0.456060000000     0.11806    
C561     C      0.613690000000     0.597330000000     0.465370000000    -0.00201988 
C562     C      0.703020000000     0.618020000000     0.548250000000    -0.0550562  
C563     C      0.962880000000     0.742180000000     0.696910000000    -0.0301734  
C564     C      0.080950000000     0.837680000000     0.772950000000    -0.0299888  
C565     C      0.101850000000     0.805600000000     0.789450000000    -0.0068887  
C566     C      0.102240000000     0.846820000000     0.799590000000    -0.00704423 
C567     C      0.020960000000     0.785790000000     0.772590000000    -0.0519717  
C568     C      0.020190000000     0.794930000000     0.699750000000    -0.051863   
C569     C      0.043250000000     0.800420000000     0.754510000000     0.0627301  
C570     C      0.080650000000     0.798430000000     0.763140000000    -0.0301038  
C571     C      0.997870000000     0.780340000000     0.717870000000     0.0630091  
C572     C      0.957930000000     0.777470000000     0.712360000000    -0.0609529  
C573     C      0.998450000000     0.775700000000     0.754550000000    -0.0546371  
C574     C      0.934990000000     0.768530000000     0.688410000000     0.115748   
C575     C      0.942090000000     0.732120000000     0.669660000000    -0.00555303 
C576     C      0.042750000000     0.804840000000     0.717780000000    -0.0546257  
Cu1      Cu     0.855540000000     0.723740000000     0.631010000000     0.862348   
Cu2      Cu     0.862170000000     0.687880000000     0.619860000000     0.853691   
Cu3      Cu     0.188690000000     0.887250000000     0.824220000000     0.841428   
Cu4      Cu     0.187810000000     0.846700000000     0.818580000000     0.842039   
Cu5      Cu     0.528870000000     0.035340000000     0.973470000000     0.851759   
Cu6      Cu     0.523440000000     0.993000000000     0.982400000000     0.851125   
Cu7      Cu     0.189550000000     0.373240000000     0.299150000000     0.869513   
Cu8      Cu     0.188350000000     0.332410000000     0.301240000000     0.837357   
Cu9      Cu     0.850560000000     0.193150000000     0.153380000000     0.892489   
Cu10     Cu     0.852650000000     0.155070000000     0.138270000000     0.835572   
Cu11     Cu     0.527130000000     0.550820000000     0.447470000000     0.838975   
Cu12     Cu     0.528200000000     0.511170000000     0.450270000000     0.858682   
Cu13     Cu     0.164390000000     0.322820000000     0.803870000000     0.850226   
Cu14     Cu     0.198040000000     0.366990000000     0.800530000000     0.870804   
Cu15     Cu     0.369330000000     0.180080000000     0.728260000000     0.84098    
Cu16     Cu     0.407650000000     0.221300000000     0.725030000000     0.849685   
Cu17     Cu     0.976190000000     0.468070000000     0.984660000000     0.85302    
Cu18     Cu     0.018360000000     0.504100000000     0.991150000000     0.865734   
Cu19     Cu     0.671540000000     0.838760000000     0.275650000000     0.854352   
Cu20     Cu     0.709120000000     0.880290000000     0.281910000000     0.842052   
Cu21     Cu     0.839440000000     0.672620000000     0.131110000000     0.843312   
Cu22     Cu     0.881210000000     0.709440000000     0.123980000000     0.862433   
Cu23     Cu     0.506320000000     0.010650000000     0.472590000000     0.859577   
Cu24     Cu     0.548010000000     0.047740000000     0.478190000000     0.849424   
Cu25     Cu     0.385450000000     0.222970000000     0.226720000000     0.859599   
Cu26     Cu     0.342910000000     0.215470000000     0.219040000000     0.858903   
Cu27     Cu     0.509660000000     0.489600000000     0.943630000000     0.871719   
Cu28     Cu     0.470380000000     0.490380000000     0.942940000000     0.862615   
Cu29     Cu     0.203540000000     0.863810000000     0.316370000000     0.847982   
Cu30     Cu     0.169020000000     0.872010000000     0.324790000000     0.857246   
Cu31     Cu     0.023470000000     0.526280000000     0.488050000000     0.856912   
Cu32     Cu     0.982660000000     0.523130000000     0.483030000000     0.847634   
Cu33     Cu     0.853910000000     0.184970000000     0.650830000000     0.850029   
Cu34     Cu     0.813760000000     0.182850000000     0.641750000000     0.8519     
Cu35     Cu     0.686640000000     0.834290000000     0.779790000000     0.855331   
Cu36     Cu     0.647140000000     0.834220000000     0.776590000000     0.847138   
H1       H      0.741620000000     0.974290000000     0.645110000000     0.0473264  
H2       H      0.810710000000     0.061230000000     0.678490000000     0.0371774  
H3       H      0.741600000000     0.056240000000     0.660640000000     0.0543312  
H4       H      0.731280000000     0.910770000000     0.704830000000     0.0421583  
H5       H      0.820870000000     0.102920000000     0.690110000000     0.0409377  
H6       H      0.691680000000     0.951640000000     0.709170000000     0.0372379  
H7       H      0.760280000000     0.953830000000     0.719210000000     0.0387942  
H8       H      0.670570000000     0.909980000000     0.741200000000     0.0436035  
H9       H      0.762740000000     0.019130000000     0.629680000000     0.0438864  
H10      H      0.831100000000     0.103610000000     0.645580000000     0.0418462  
H11      H      0.740790000000     0.992890000000     0.755590000000     0.0444314  
H12      H      0.799940000000     0.061250000000     0.634030000000     0.0408579  
H13      H      0.739040000000     0.911990000000     0.751050000000     0.0506214  
H14      H      0.763800000000     0.099460000000     0.668360000000     0.0297978  
H15      H      0.704030000000     0.952030000000     0.752730000000     0.0409898  
H16      H      0.743460000000     0.953320000000     0.758480000000     0.0440897  
H17      H      0.761470000000     0.037820000000     0.740080000000     0.0477857  
H18      H      0.760110000000     0.056080000000     0.624300000000     0.0615994  
H19      H      0.682100000000     0.909220000000     0.697810000000     0.0396165  
H20      H      0.910890000000     0.357230000000     0.640820000000     0.0477525  
H21      H      0.911160000000     0.401410000000     0.524620000000     0.0371254  
H22      H      0.978780000000     0.404660000000     0.549180000000     0.0582991  
H23      H      0.853630000000     0.281540000000     0.661640000000     0.0399888  
H24      H      0.940350000000     0.426540000000     0.478800000000     0.0395423  
H25      H      0.926490000000     0.309070000000     0.626370000000     0.0376932  
H26      H      0.857710000000     0.305320000000     0.607800000000     0.0369737  
H27      H      0.904860000000     0.264090000000     0.645700000000     0.0432022  
H28      H      0.932420000000     0.396090000000     0.605940000000     0.0437944  
H29      H      0.933210000000     0.446020000000     0.506020000000     0.0445829  
H30      H      0.903200000000     0.313710000000     0.546680000000     0.0430228  
H31      H      0.930490000000     0.422240000000     0.559380000000     0.0412095  
H32      H      0.835100000000     0.260300000000     0.626960000000     0.0434418  
H33      H      0.988530000000     0.431410000000     0.498010000000     0.0286925  
H34      H      0.906270000000     0.287880000000     0.592560000000     0.0399592  
H35      H      0.865610000000     0.285700000000     0.581560000000     0.0397637  
H36      H      0.925160000000     0.352680000000     0.511730000000     0.0476831  
H37      H      0.969090000000     0.422990000000     0.574860000000     0.061511   
H38      H      0.898580000000     0.283960000000     0.673670000000     0.0396573  
H39      H      0.093700000000     0.712930000000     0.352700000000     0.0464447  
H40      H      0.093870000000     0.647140000000     0.438080000000     0.0381203  
H41      H      0.026440000000     0.647570000000     0.440340000000     0.0576543  
H42      H      0.166810000000     0.791500000000     0.403610000000     0.0396527  
H43      H      0.064380000000     0.604530000000     0.425950000000     0.0406176  
H44      H      0.087970000000     0.758840000000     0.397850000000     0.0395929  
H45      H      0.149400000000     0.747450000000     0.390670000000     0.038715   
H46      H      0.111880000000     0.800060000000     0.365380000000     0.0464542  
H47      H      0.068920000000     0.668150000000     0.368470000000     0.0493867  
H48      H      0.073580000000     0.605900000000     0.471350000000     0.0447454  
H49      H      0.107100000000     0.732130000000     0.464020000000     0.0478394  
H50      H      0.079790000000     0.647240000000     0.479860000000     0.0415401  
H51      H      0.173380000000     0.788500000000     0.358000000000     0.0487127  
H52      H      0.010950000000     0.604140000000     0.432700000000     0.0303285  
H53      H      0.099170000000     0.756170000000     0.354760000000     0.0437321  
H54      H      0.134650000000     0.749640000000     0.350590000000     0.0452581  
H55      H      0.082080000000     0.687530000000     0.479840000000     0.0447168  
H56      H      0.042580000000     0.649400000000     0.480820000000     0.0628829  
H57      H      0.123550000000     0.799530000000     0.408850000000     0.0419918  
H58      H      0.584420000000     0.674580000000     0.807790000000     0.0450167  
H59      H      0.585510000000     0.610850000000     0.897250000000     0.0386954  
H60      H      0.520020000000     0.614880000000     0.902750000000     0.056758   
H61      H      0.653180000000     0.759320000000     0.856010000000     0.0427612  
H62      H      0.555150000000     0.568340000000     0.888530000000     0.0426934  
H63      H      0.573500000000     0.717420000000     0.844540000000     0.0382302  
H64      H      0.640510000000     0.715860000000     0.846720000000     0.0395519  
H65      H      0.594470000000     0.757700000000     0.808760000000     0.0442187  
H66      H      0.561030000000     0.630450000000     0.827320000000     0.0484706  
H67      H      0.564270000000     0.570500000000     0.934040000000     0.0479909  
H68      H      0.599040000000     0.698580000000     0.917320000000     0.0480831  
H69      H      0.573150000000     0.613040000000     0.939520000000     0.042859   
H70      H      0.661220000000     0.756340000000     0.811200000000     0.0503059  
H71      H      0.501380000000     0.571240000000     0.899590000000     0.0345703  
H72      H      0.587470000000     0.715460000000     0.803590000000     0.0414776  
H73      H      0.625790000000     0.714560000000     0.804860000000     0.044166   
H74      H      0.576160000000     0.654580000000     0.936840000000     0.0449985  
H75      H      0.537460000000     0.617550000000     0.942100000000     0.0628555  
H76      H      0.604270000000     0.760440000000     0.854170000000     0.0402485  
H77      H      0.286290000000     0.015970000000     0.305610000000     0.0453284  
H78      H      0.345690000000     0.095980000000     0.220790000000     0.0389996  
H79      H      0.287780000000     0.095180000000     0.280970000000     0.0605681  
H80      H      0.246310000000     0.939710000000     0.227630000000     0.039804   
H81      H      0.364160000000     0.134880000000     0.254790000000     0.0445062  
H82      H      0.225710000000     0.991560000000     0.266920000000     0.0398267  
H83      H      0.284180000000     0.977340000000     0.244290000000     0.0382152  
H84      H      0.199280000000     0.947530000000     0.287620000000     0.0493245  
H85      H      0.312540000000     0.061820000000     0.304830000000     0.0499968  
H86      H      0.363580000000     0.142550000000     0.208630000000     0.0439911  
H87      H      0.261960000000     0.017990000000     0.198740000000     0.0469808  
H88      H      0.324580000000     0.103610000000     0.198670000000     0.0413025  
H89      H      0.258510000000     0.932970000000     0.266760000000     0.0447535  
H90      H      0.327930000000     0.131740000000     0.294680000000     0.0325032  
H91      H      0.239550000000     0.983430000000     0.302980000000     0.045531   
H92      H      0.274050000000     0.975200000000     0.289760000000     0.0417157  
H93      H      0.287470000000     0.064140000000     0.198690000000     0.0443933  
H94      H      0.290960000000     0.104140000000     0.234510000000     0.0611197  
H95      H      0.207590000000     0.949710000000     0.241440000000     0.0402734  
H96      H      0.398200000000     0.307780000000     0.087560000000     0.043526   
H97      H      0.399650000000     0.381860000000     0.011210000000     0.0387263  
H98      H      0.465310000000     0.377410000000     0.013770000000     0.061363   
H99      H      0.379670000000     0.319720000000     0.213740000000     0.038224   
H100     H      0.415830000000     0.385660000000     0.950770000000     0.0411342  
H101     H      0.442480000000     0.334310000000     0.158140000000     0.0390141  
H102     H      0.369780000000     0.323230000000     0.151820000000     0.037148   
H103     H      0.429350000000     0.301540000000     0.205400000000     0.0461322  
H104     H      0.408490000000     0.328280000000     0.029040000000     0.0479197  
H105     H      0.417000000000     0.414410000000     0.963510000000     0.0484545  
H106     H      0.429610000000     0.380370000000     0.138430000000     0.0468106  
H107     H      0.427570000000     0.409660000000     0.025290000000     0.0423648  
H108     H      0.355300000000     0.289720000000     0.198600000000     0.0443022  
H109     H      0.453260000000     0.381710000000     0.953020000000     0.0284003  
H110     H      0.418360000000     0.303990000000     0.142840000000     0.0440533  
H111     H      0.373890000000     0.297200000000     0.138940000000     0.0413306  
H112     H      0.440650000000     0.400920000000     0.079840000000     0.0443202  
H113     H      0.467850000000     0.407080000000     0.026340000000     0.0626808  
H114     H      0.424150000000     0.326880000000     0.217580000000     0.0384611  
H115     H      0.721250000000     0.850400000000     0.509520000000     0.0424335  
H116     H      0.637560000000     0.825470000000     0.599950000000     0.0374111  
H117     H      0.690100000000     0.801360000000     0.609100000000     0.054359   
H118     H      0.700430000000     0.876520000000     0.404000000000     0.0444461  
H119     H      0.645480000000     0.835840000000     0.658830000000     0.0405574  
H120     H      0.668610000000     0.795730000000     0.442480000000     0.0366119  
H121     H      0.713240000000     0.874040000000     0.461230000000     0.0367767  
H122     H      0.681260000000     0.803450000000     0.377340000000     0.0404455  
H123     H      0.711470000000     0.843570000000     0.572730000000     0.0472837  
H124     H      0.622140000000     0.803780000000     0.663610000000     0.0427906  
H125     H      0.643520000000     0.806790000000     0.484330000000     0.0490926  
H126     H      0.628370000000     0.792900000000     0.607080000000     0.0391143  
H127     H      0.728940000000     0.877410000000     0.395800000000     0.0408565  
H128     H      0.694910000000     0.818660000000     0.665510000000     0.0326164  
H129     H      0.701380000000     0.811910000000     0.435090000000     0.0390143  
H130     H      0.726500000000     0.855050000000     0.448100000000     0.0361129  
H131     H      0.634010000000     0.797590000000     0.547080000000     0.0434136  
H132     H      0.657590000000     0.779940000000     0.613380000000     0.0631095  
H133     H      0.660340000000     0.813540000000     0.391870000000     0.0529495  
H134     H      0.683080000000     0.842360000000     0.069590000000     0.0429318  
H135     H      0.640460000000     0.856090000000     0.951410000000     0.0370854  
H136     H      0.716150000000     0.877670000000     0.950600000000     0.055701   
H137     H      0.648990000000     0.875980000000     0.159920000000     0.0391375  
H138     H      0.641260000000     0.833460000000     0.901530000000     0.0393451  
H139     H      0.716960000000     0.907440000000     0.106020000000     0.0366088  
H140     H      0.641860000000     0.849350000000     0.108450000000     0.0374503  
H141     H      0.719850000000     0.904870000000     0.172200000000     0.0415272  
H142     H      0.681370000000     0.835390000000     0.005160000000     0.0477595  
H143     H      0.642620000000     0.861000000000     0.883320000000     0.0432356  
H144     H      0.678670000000     0.909570000000     0.052270000000     0.0461964  
H145     H      0.663250000000     0.886000000000     0.933350000000     0.0396372  
H146     H      0.643850000000     0.845910000000     0.174600000000     0.0446946  
H147     H      0.703140000000     0.851660000000     0.900110000000     0.0312511  
H148     H      0.709670000000     0.876480000000     0.120870000000     0.0403814  
H149     H      0.665270000000     0.842160000000     0.122760000000     0.0401168  
H150     H      0.678950000000     0.903700000000     0.987800000000     0.0431846  
H151     H      0.705690000000     0.898350000000     0.934450000000     0.0620961  
H152     H      0.697890000000     0.914060000000     0.158300000000     0.039108   
H153     H      0.779590000000     0.792090000000     0.244850000000     0.0422281  
H154     H      0.775460000000     0.732570000000     0.149580000000     0.0370566  
H155     H      0.846850000000     0.796710000000     0.151420000000     0.0536656  
H156     H      0.712350000000     0.808030000000     0.194900000000     0.040207   
H157     H      0.798690000000     0.713080000000     0.159980000000     0.041901   
H158     H      0.791070000000     0.848610000000     0.216140000000     0.0370013  
H159     H      0.726230000000     0.778180000000     0.200550000000     0.0365279  
H160     H      0.766580000000     0.863010000000     0.253070000000     0.0419132  
H161     H      0.802200000000     0.771330000000     0.223890000000     0.0469397  
H162     H      0.793980000000     0.710280000000     0.112960000000     0.04205    
H163     H      0.771720000000     0.810280000000     0.136460000000     0.0475428  
H164     H      0.791340000000     0.747510000000     0.109000000000     0.0424031  
H165     H      0.702070000000     0.792940000000     0.237320000000     0.0424026  
H166     H      0.861540000000     0.769180000000     0.150330000000     0.0310325  
H167     H      0.775220000000     0.828810000000     0.253780000000     0.0382598  
H168     H      0.738110000000     0.788530000000     0.244830000000     0.0384098  
H169     H      0.794080000000     0.789350000000     0.115460000000     0.0450452  
H170     H      0.829820000000     0.785590000000     0.110760000000     0.0624042  
H171     H      0.759550000000     0.859340000000     0.206440000000     0.0400131  
H172     H      0.580560000000     0.955920000000     0.338370000000     0.0428494  
H173     H      0.656210000000     0.945770000000     0.340480000000     0.0363325  
H174     H      0.591100000000     0.874640000000     0.343410000000     0.056767   
H175     H      0.590300000000     0.999330000000     0.459390000000     0.041243   
H176     H      0.660650000000     0.923000000000     0.292110000000     0.0392098  
H177     H      0.540770000000     0.930250000000     0.404210000000     0.037925   
H178     H      0.612020000000     0.994780000000     0.410030000000     0.0367189  
H179     H      0.521800000000     0.957190000000     0.419230000000     0.0442083  
H180     H      0.599580000000     0.934200000000     0.308280000000     0.0469953  
H181     H      0.681060000000     0.925170000000     0.327150000000     0.0427187  
H182     H      0.598300000000     0.936590000000     0.440320000000     0.0476228  
H183     H      0.652920000000     0.922570000000     0.372870000000     0.0409198  
H184     H      0.592850000000     0.021260000000     0.425740000000     0.0424558  
H185     H      0.613100000000     0.867370000000     0.298210000000     0.0287521  
H186     H      0.549110000000     0.956450000000     0.374600000000     0.0390866  
H187     H      0.589830000000     0.993370000000     0.378030000000     0.0388736  
H188     H      0.617810000000     0.915520000000     0.410480000000     0.0440514  
H189     H      0.614880000000     0.882810000000     0.376200000000     0.0619599  
H190     H      0.538260000000     0.952560000000     0.454800000000     0.0412306  
H191     H      0.004920000000     0.571890000000     0.718230000000     0.0487522  
H192     H      0.955960000000     0.495580000000     0.816290000000     0.0381545  
H193     H      0.033760000000     0.541200000000     0.816500000000     0.057779   
H194     H      0.036840000000     0.570180000000     0.613290000000     0.0430076  
H195     H      0.965220000000     0.510360000000     0.876280000000     0.0390008  
H196     H      0.965250000000     0.531410000000     0.659060000000     0.0381948  
H197     H      0.039760000000     0.548160000000     0.664910000000     0.0402224  
H198     H      0.966060000000     0.528490000000     0.592720000000     0.0470067  
H199     H      0.000630000000     0.562870000000     0.782540000000     0.048402   
H200     H      0.957910000000     0.478240000000     0.876510000000     0.0485443  
H201     H      0.993140000000     0.497530000000     0.697510000000     0.0450335  
H202     H      0.975160000000     0.481350000000     0.818460000000     0.0440122  
H203     H      0.041180000000     0.544850000000     0.598510000000     0.0495659  
H204     H      0.024020000000     0.543630000000     0.877020000000     0.0300086  
H205     H      0.973050000000     0.508260000000     0.644190000000     0.0417672  
H206     H      0.016720000000     0.518060000000     0.647490000000     0.0449465  
H207     H      0.990200000000     0.489030000000     0.761350000000     0.0450862  
H208     H      0.019420000000     0.507450000000     0.816830000000     0.0642351  
H209     H      0.987020000000     0.559330000000     0.609720000000     0.0471032  
H210     H      0.992450000000     0.456140000000     0.285780000000     0.0441833  
H211     H      0.959870000000     0.449260000000     0.159270000000     0.0385048  
H212     H      0.038200000000     0.487470000000     0.161330000000     0.0622209  
H213     H      0.983040000000     0.525450000000     0.350800000000     0.0425686  
H214     H      0.974370000000     0.430670000000     0.114480000000     0.043756   
H215     H      0.038370000000     0.509040000000     0.313100000000     0.039458   
H216     H      0.964050000000     0.492620000000     0.306840000000     0.0373378  
H217     H      0.037120000000     0.512260000000     0.379900000000     0.0456922  
H218     H      0.991830000000     0.441760000000     0.224580000000     0.0496114  
H219     H      0.959810000000     0.446230000000     0.093180000000     0.0449247  
H220     H      0.006470000000     0.528020000000     0.245690000000     0.0481372  
H221     H      0.976390000000     0.479810000000     0.138400000000     0.0413345  
H222     H      0.963000000000     0.496560000000     0.373500000000     0.0431929  
H223     H      0.021830000000     0.453680000000     0.117240000000     0.0305506  
H224     H      0.014360000000     0.481320000000     0.334690000000     0.0405444  
H225     H      0.971550000000     0.471900000000     0.331040000000     0.0400251  
H226     H      0.004650000000     0.513210000000     0.184450000000     0.0447904  
H227     H      0.023460000000     0.502610000000     0.138920000000     0.0615909  
H228     H      0.035670000000     0.536700000000     0.355760000000     0.0411858  
H229     H      0.935970000000     0.581410000000     0.016630000000     0.0429095  
H230     H      0.872460000000     0.584240000000     0.106720000000     0.037374   
H231     H      0.944410000000     0.647470000000     0.107610000000     0.055165   
H232     H      0.939480000000     0.505090000000     0.061780000000     0.0402321  
H233     H      0.861450000000     0.614820000000     0.097580000000     0.0407428  
H234     H      0.985980000000     0.586050000000     0.060840000000     0.0383962  
H235     H      0.913930000000     0.523260000000     0.050330000000     0.0369813  
H236     H      0.003070000000     0.562980000000     0.025730000000     0.0451418  
H237     H      0.918070000000     0.607390000000     0.034860000000     0.0476182  
H238     H      0.859110000000     0.611240000000     0.144720000000     0.0426653  
H239     H      0.939610000000     0.563190000000     0.126580000000     0.0474719  
H240     H      0.888310000000     0.597650000000     0.147870000000     0.0404182  
H241     H      0.931190000000     0.500380000000     0.015580000000     0.0433696  
H242     H      0.923730000000     0.669600000000     0.100360000000     0.0314566  
H243     H      0.972520000000     0.575740000000     0.017290000000     0.0395868  
H244     H      0.931250000000     0.539670000000     0.011240000000     0.0388518  
H245     H      0.921940000000     0.589300000000     0.144850000000     0.0443921  
H246     H      0.928870000000     0.632280000000     0.148090000000     0.0625116  
H247     H      0.991610000000     0.550460000000     0.069160000000     0.0421388  
H248     H      0.434450000000     0.222160000000     0.954370000000     0.0458202  
H249     H      0.347350000000     0.207580000000     0.034760000000     0.0363308  
H250     H      0.414280000000     0.211120000000     0.068970000000     0.0541283  
H251     H      0.405980000000     0.163790000000     0.851320000000     0.0380329  
H252     H      0.360070000000     0.235840000000     0.083850000000     0.0357916  
H253     H      0.424720000000     0.233540000000     0.899810000000     0.0360202  
H254     H      0.377010000000     0.153960000000     0.899420000000     0.035526   
H255     H      0.427340000000     0.234080000000     0.834880000000     0.0428034  
H256     H      0.425810000000     0.231360000000     0.013930000000     0.0467786  
H257     H      0.335430000000     0.206500000000     0.100540000000     0.0415597  
H258     H      0.356620000000     0.169030000000     0.939990000000     0.040973   
H259     H      0.345990000000     0.182230000000     0.061200000000     0.0403592  
H260     H      0.376220000000     0.154420000000     0.832510000000     0.0417488  
H261     H      0.407630000000     0.242530000000     0.100100000000     0.0237553  
H262     H      0.394420000000     0.220310000000     0.880500000000     0.0420874  
H263     H      0.366160000000     0.174050000000     0.881010000000     0.0395229  
H264     H      0.348830000000     0.175230000000     0.000460000000     0.0415974  
H265     H      0.384910000000     0.185770000000     0.083860000000     0.0602473  
H266     H      0.438120000000     0.214420000000     0.854340000000     0.0401615  
H267     H      0.354240000000     0.240890000000     0.523630000000     0.0423976  
H268     H      0.396890000000     0.249330000000     0.400910000000     0.0372052  
H269     H      0.319180000000     0.201750000000     0.399690000000     0.0578117  
H270     H      0.408040000000     0.217550000000     0.594710000000     0.0394943  
H271     H      0.380640000000     0.262200000000     0.351640000000     0.0379319  
H272     H      0.331920000000     0.178730000000     0.557100000000     0.0373388  
H273     H      0.403770000000     0.242100000000     0.548870000000     0.0362729  
H274     H      0.336350000000     0.180180000000     0.624330000000     0.0410148  
H275     H      0.350270000000     0.248870000000     0.460470000000     0.0471327  
H276     H      0.398390000000     0.248810000000     0.334960000000     0.043682   
H277     H      0.371550000000     0.183580000000     0.493590000000     0.0475164  
H278     H      0.384170000000     0.217940000000     0.383040000000     0.0433066  
H279     H      0.407510000000     0.243410000000     0.615930000000     0.0422059  
H280     H      0.327840000000     0.228320000000     0.348020000000     0.0295569  
H281     H      0.338880000000     0.208310000000     0.576950000000     0.038768   
H282     H      0.379840000000     0.244410000000     0.572450000000     0.0377059  
H283     H      0.366430000000     0.190630000000     0.430780000000     0.0451586  
H284     H      0.338510000000     0.189590000000     0.384350000000     0.0637107  
H285     H      0.355240000000     0.170730000000     0.600560000000     0.0409947  
H286     H      0.474850000000     0.119910000000     0.672540000000     0.0471488  
H287     H      0.516690000000     0.127450000000     0.552540000000     0.0375658  
H288     H      0.446610000000     0.062220000000     0.564400000000     0.0585061  
H289     H      0.462520000000     0.178770000000     0.713230000000     0.0396371  
H290     H      0.509450000000     0.103160000000     0.498840000000     0.0442622  
H291     H      0.414520000000     0.109070000000     0.664410000000     0.0371577  
H292     H      0.480270000000     0.179760000000     0.655430000000     0.0367466  
H293     H      0.393300000000     0.129260000000     0.694560000000     0.042755   
H294     H      0.488470000000     0.099780000000     0.628840000000     0.0436123  
H295     H      0.533250000000     0.102350000000     0.524400000000     0.0448412  
H296     H      0.442880000000     0.142280000000     0.588300000000     0.0430571  
H297     H      0.513600000000     0.101960000000     0.580200000000     0.0407565  
H298     H      0.459710000000     0.200990000000     0.685220000000     0.0426755  
H299     H      0.460830000000     0.055260000000     0.508770000000     0.035742   
H300     H      0.414150000000     0.133450000000     0.637860000000     0.0400622  
H301     H      0.452880000000     0.175030000000     0.632480000000     0.0392526  
H302     H      0.456490000000     0.122060000000     0.544380000000     0.0491993  
H303     H      0.472710000000     0.064910000000     0.588610000000     0.0610801  
H304     H      0.419130000000     0.131890000000     0.719170000000     0.0387226  
H305     H      0.094380000000     0.379750000000     0.900910000000     0.0443512  
H306     H      0.082240000000     0.452620000000     0.925420000000     0.0418417  
H307     H      0.012190000000     0.388180000000     0.909050000000     0.0596312  
H308     H      0.134220000000     0.400140000000     0.776490000000     0.0415175  
H309     H      0.057110000000     0.449430000000     0.976200000000     0.0480884  
H310     H      0.071340000000     0.345410000000     0.828590000000     0.0385279  
H311     H      0.130250000000     0.421080000000     0.829060000000     0.0389827  
H312     H      0.099940000000     0.330650000000     0.807170000000     0.0445121  
H313     H      0.072010000000     0.394160000000     0.939050000000     0.0503248  
H314     H      0.062850000000     0.476000000000     0.949400000000     0.0574643  
H315     H      0.073530000000     0.406460000000     0.808260000000     0.0489591  
H316     H      0.060780000000     0.454010000000     0.894580000000     0.0495619  
H317     H      0.159340000000     0.407680000000     0.806620000000     0.0463154  
H318     H      0.006050000000     0.405770000000     0.962200000000     0.0317191  
H319     H      0.097020000000     0.353690000000     0.858270000000     0.0413114  
H320     H      0.132100000000     0.398750000000     0.858450000000     0.041724   
H321     H      0.052230000000     0.421930000000     0.846380000000     0.0470765  
H322     H      0.020980000000     0.416260000000     0.883530000000     0.0641844  
H323     H      0.096840000000     0.351430000000     0.776570000000     0.0397879  
H324     H      0.304830000000     0.271820000000     0.724720000000     0.0427816  
H325     H      0.232990000000     0.266440000000     0.796160000000     0.0384501  
H326     H      0.292770000000     0.341080000000     0.792140000000     0.0578156  
H327     H      0.325870000000     0.216230000000     0.801190000000     0.0391304  
H328     H      0.213960000000     0.288220000000     0.772410000000     0.043355   
H329     H      0.358060000000     0.293620000000     0.771300000000     0.0379386  
H330     H      0.292860000000     0.222620000000     0.780560000000     0.0364812  
H331     H      0.381200000000     0.272560000000     0.749200000000     0.042845   
H332     H      0.278600000000     0.291080000000     0.729220000000     0.0491594  
H333     H      0.205570000000     0.283140000000     0.818400000000     0.0521509  
H334     H      0.311600000000     0.273480000000     0.839080000000     0.0475484  
H335     H      0.243430000000     0.285520000000     0.835740000000     0.0450508  
H336     H      0.315630000000     0.201200000000     0.758680000000     0.0420716  
H337     H      0.261720000000     0.349700000000     0.775650000000     0.0376732  
H338     H      0.344770000000     0.274590000000     0.732090000000     0.0391848  
H339     H      0.306980000000     0.233430000000     0.737470000000     0.0389089  
H340     H      0.285310000000     0.292530000000     0.843650000000     0.0456378  
H341     H      0.278620000000     0.326730000000     0.833730000000     0.0636913  
H342     H      0.371220000000     0.265560000000     0.794650000000     0.0398588  
H343     H      0.474360000000     0.482650000000     0.645950000000     0.0433146  
H344     H      0.514940000000     0.478290000000     0.765280000000     0.0388808  
H345     H      0.455480000000     0.493000000000     0.776390000000     0.0568535  
H346     H      0.555270000000     0.534980000000     0.585200000000     0.0393163  
H347     H      0.487030000000     0.448680000000     0.808680000000     0.0410633  
H348     H      0.499730000000     0.548820000000     0.623770000000     0.0378204  
H349     H      0.531490000000     0.501690000000     0.627290000000     0.0374129  
H350     H      0.506180000000     0.553560000000     0.557580000000     0.041941   
H351     H      0.461520000000     0.464860000000     0.705800000000     0.0483568  
H352     H      0.514520000000     0.471230000000     0.831930000000     0.0465458  
H353     H      0.534420000000     0.550160000000     0.691230000000     0.0475271  
H354     H      0.519870000000     0.504810000000     0.792160000000     0.0420343  
H355     H      0.538230000000     0.505870000000     0.561560000000     0.0439979  
H356     H      0.447460000000     0.457030000000     0.814020000000     0.027256   
H357     H      0.484600000000     0.519140000000     0.600440000000     0.0406307  
H358     H      0.503440000000     0.491470000000     0.602090000000     0.0401606  
H359     H      0.520340000000     0.533180000000     0.751220000000     0.0444028  
H360     H      0.484180000000     0.513360000000     0.799240000000     0.0605238  
H361     H      0.534450000000     0.566350000000     0.582750000000     0.040772   
H362     H      0.544150000000     0.501800000000     0.222800000000     0.0475798  
H363     H      0.469810000000     0.502030000000     0.127330000000     0.0376165  
H364     H      0.540980000000     0.511200000000     0.105840000000     0.0555557  
H365     H      0.563800000000     0.562280000000     0.319860000000     0.0445586  
H366     H      0.462000000000     0.473440000000     0.079600000000     0.0366426  
H367     H      0.516570000000     0.488640000000     0.274020000000     0.0360011  
H368     H      0.544470000000     0.567600000000     0.268040000000     0.0373144  
H369     H      0.516600000000     0.490350000000     0.339410000000     0.0435668  
H370     H      0.530570000000     0.490070000000     0.161410000000     0.0473687  
H371     H      0.462210000000     0.500220000000     0.059640000000     0.0464065  
H372     H      0.508880000000     0.547130000000     0.225000000000     0.0423669  
H373     H      0.492070000000     0.528910000000     0.101930000000     0.0448619  
H374     H      0.540310000000     0.568660000000     0.335040000000     0.0439539  
H375     H      0.508780000000     0.475570000000     0.072110000000     0.0262283  
H376     H      0.498480000000     0.502040000000     0.289900000000     0.0405144  
H377     H      0.513800000000     0.546950000000     0.285260000000     0.0386104  
H378     H      0.498530000000     0.538380000000     0.162950000000     0.0436906  
H379     H      0.532260000000     0.532620000000     0.086630000000     0.0636932  
H380     H      0.547120000000     0.508480000000     0.320880000000     0.0484206  
H381     H      0.805130000000     0.208370000000     0.866720000000     0.0438179  
H382     H      0.798310000000     0.162580000000     0.017470000000     0.047102   
H383     H      0.845790000000     0.227540000000     0.980440000000     0.060955   
H384     H      0.791510000000     0.153830000000     0.766240000000     0.040934   
H385     H      0.826020000000     0.145770000000     0.032250000000     0.0406113  
H386     H      0.859330000000     0.198160000000     0.829550000000     0.037115   
H387     H      0.782380000000     0.169990000000     0.817970000000     0.03754    
H388     H      0.864810000000     0.204590000000     0.763690000000     0.0412782  
H389     H      0.804860000000     0.210210000000     0.931750000000     0.0493923  
H390     H      0.847670000000     0.165320000000     0.998790000000     0.0397976  
H391     H      0.834030000000     0.157500000000     0.872550000000     0.0462937  
H392     H      0.802800000000     0.147430000000     0.980450000000     0.0359051  
H393     H      0.789440000000     0.180440000000     0.751470000000     0.0439439  
H394     H      0.834910000000     0.214230000000     0.042580000000     0.037286   
H395     H      0.847780000000     0.217690000000     0.812080000000     0.0414955  
H396     H      0.804400000000     0.202180000000     0.806620000000     0.0385906  
H397     H      0.835990000000     0.161360000000     0.937280000000     0.0437257  
H398     H      0.860230000000     0.208590000000     0.975450000000     0.0638505  
H399     H      0.847930000000     0.172240000000     0.777330000000     0.0417124  
H400     H      0.893690000000     0.205490000000     0.431250000000     0.0460066  
H401     H      0.844430000000     0.130970000000     0.320470000000     0.0369824  
H402     H      0.887290000000     0.211010000000     0.312670000000     0.0603697  
H403     H      0.840300000000     0.212770000000     0.516340000000     0.0387176  
H404     H      0.873630000000     0.140850000000     0.271830000000     0.0386043  
H405     H      0.874970000000     0.169970000000     0.478850000000     0.0357946  
H406     H      0.822620000000     0.193730000000     0.460570000000     0.0375436  
H407     H      0.865900000000     0.166470000000     0.543700000000     0.0423015  
H408     H      0.900270000000     0.198180000000     0.369170000000     0.0469607  
H409     H      0.843030000000     0.127670000000     0.252940000000     0.0381718  
H410     H      0.815090000000     0.156670000000     0.417440000000     0.0434932  
H411     H      0.830670000000     0.147330000000     0.298580000000     0.042042   
H412     H      0.810820000000     0.186070000000     0.526230000000     0.0466069  
H413     H      0.900640000000     0.188180000000     0.273090000000     0.0232409  
H414     H      0.842720000000     0.149470000000     0.488460000000     0.0432209  
H415     H      0.812880000000     0.162430000000     0.477000000000     0.0417574  
H416     H      0.821360000000     0.151700000000     0.355210000000     0.0435854  
H417     H      0.856920000000     0.195360000000     0.292580000000     0.0675173  
H418     H      0.880200000000     0.198140000000     0.527040000000     0.0405615  
H419     H      0.127500000000     0.339880000000     0.520090000000     0.0434644  
H420     H      0.145880000000     0.300950000000     0.626810000000     0.0367813  
H421     H      0.197460000000     0.378760000000     0.620270000000     0.0570781  
H422     H      0.166790000000     0.311800000000     0.413980000000     0.0458568  
H423     H      0.141770000000     0.315570000000     0.683280000000     0.0414327  
H424     H      0.164300000000     0.375960000000     0.470700000000     0.0424031  
H425     H      0.146550000000     0.299810000000     0.468240000000     0.0361896  
H426     H      0.147000000000     0.367210000000     0.403590000000     0.0443139  
H427     H      0.132490000000     0.341290000000     0.585020000000     0.0479377  
H428     H      0.160100000000     0.301050000000     0.690340000000     0.0424541  
H429     H      0.193730000000     0.335170000000     0.507920000000     0.0498394  
H430     H      0.178450000000     0.312460000000     0.632170000000     0.0419232  
H431     H      0.135540000000     0.300120000000     0.400740000000     0.0376961  
H432     H      0.188960000000     0.378380000000     0.680390000000     0.0310992  
H433     H      0.133600000000     0.351090000000     0.460430000000     0.0362238  
H434     H      0.124160000000     0.308990000000     0.457110000000     0.0373849  
H435     H      0.197620000000     0.334550000000     0.572620000000     0.0450454  
H436     H      0.207560000000     0.356160000000     0.624420000000     0.0630384  
H437     H      0.178580000000     0.378310000000     0.413880000000     0.0578649  
H438     H      0.175470000000     0.353450000000     0.104500000000     0.0483335  
H439     H      0.208670000000     0.393190000000     0.975430000000     0.0401094  
H440     H      0.174640000000     0.314100000000     0.986280000000     0.0578751  
H441     H      0.250320000000     0.400140000000     0.181220000000     0.0397488  
H442     H      0.177160000000     0.375640000000     0.930210000000     0.0383799  
H443     H      0.215840000000     0.329640000000     0.133000000000     0.0377853  
H444     H      0.225910000000     0.403480000000     0.133150000000     0.0415185  
H445     H      0.216280000000     0.329110000000     0.199250000000     0.0435147  
H446     H      0.162470000000     0.348530000000     0.041970000000     0.0494603  
H447     H      0.206820000000     0.389270000000     0.909410000000     0.0487454  
H448     H      0.248440000000     0.370730000000     0.071730000000     0.048343   
H449     H      0.223930000000     0.377030000000     0.958110000000     0.0472093  
H450     H      0.225850000000     0.403870000000     0.199790000000     0.0494737  
H451     H      0.154150000000     0.319450000000     0.935720000000     0.0284347  
H452     H      0.191640000000     0.334030000000     0.151750000000     0.0439608  
H453     H      0.197690000000     0.378480000000     0.151970000000     0.0499746  
H454     H      0.235070000000     0.364400000000     0.009410000000     0.0468729  
H455     H      0.204750000000     0.331520000000     0.966210000000     0.0651824  
H456     H      0.244390000000     0.354100000000     0.180650000000     0.0388946  
H457     H      0.991430000000     0.236010000000     0.238780000000     0.0439208  
H458     H      0.079400000000     0.262410000000     0.216390000000     0.0367964  
H459     H      0.074110000000     0.328030000000     0.229440000000     0.0559076  
H460     H      0.947250000000     0.212060000000     0.115600000000     0.0451656  
H461     H      0.106300000000     0.282140000000     0.264900000000     0.0414621  
H462     H      0.967180000000     0.266480000000     0.202060000000     0.0426932  
H463     H      0.978610000000     0.211600000000     0.151120000000     0.0371248  
H464     H      0.919840000000     0.230850000000     0.202840000000     0.119677   
H465     H      0.033760000000     0.259470000000     0.261550000000     0.0474721  
H466     H      0.125830000000     0.288980000000     0.226960000000     0.0412073  
H467     H      0.016170000000     0.272980000000     0.137110000000     0.0507566  
H468     H      0.095660000000     0.289010000000     0.187150000000     0.0420562  
H469     H      0.932270000000     0.184430000000     0.142500000000     0.0444721  
H470     H      0.107490000000     0.341200000000     0.267060000000     0.0311299  
H471     H      0.956670000000     0.236350000000     0.222450000000     0.0437185  
H472     H      0.960660000000     0.204090000000     0.191410000000     0.0403613  
H473     H      0.058800000000     0.294780000000     0.158900000000     0.0455588  
H474     H      0.089650000000     0.324420000000     0.191790000000     0.0624597  
H475     H      0.933060000000     0.251770000000     0.164750000000     0.0639748  
H476     H      0.389640000000     0.456500000000     0.359920000000     0.0424878  
H477     H      0.302350000000     0.375700000000     0.373370000000     0.0369771  
H478     H      0.302160000000     0.444500000000     0.376030000000     0.0564362  
H479     H      0.434580000000     0.458750000000     0.475190000000     0.039812   
H480     H      0.273570000000     0.368920000000     0.327990000000     0.0403569  
H481     H      0.403300000000     0.498630000000     0.425590000000     0.038165   
H482     H      0.405860000000     0.430880000000     0.430820000000     0.0363273  
H483     H      0.449320000000     0.523830000000     0.433300000000     0.0433628  
H484     H      0.347730000000     0.434140000000     0.334810000000     0.0475135  
H485     H      0.255290000000     0.352830000000     0.365920000000     0.0427784  
H486     H      0.359180000000     0.439200000000     0.465920000000     0.0482094  
H487     H      0.285270000000     0.381510000000     0.406960000000     0.0409688  
H488     H      0.451680000000     0.455390000000     0.439300000000     0.04262    
H489     H      0.271090000000     0.424200000000     0.333730000000     0.0313018  
H490     H      0.420270000000     0.492400000000     0.392140000000     0.0393202  
H491     H      0.421810000000     0.452920000000     0.395280000000     0.0389287  
H492     H      0.317360000000     0.416450000000     0.440920000000     0.0448898  
H493     H      0.286700000000     0.420990000000     0.409720000000     0.0628839  
H494     H      0.433140000000     0.505040000000     0.471260000000     0.0400392  
H495     H      0.502660000000     0.007300000000     0.685300000000     0.0452995  
H496     H      0.514210000000     0.962560000000     0.807250000000     0.0375708  
H497     H      0.548130000000     0.041360000000     0.793600000000     0.0558613  
H498     H      0.523870000000     0.968660000000     0.585240000000     0.0392685  
H499     H      0.501130000000     0.974060000000     0.859380000000     0.0402632  
H500     H      0.566870000000     0.032790000000     0.649420000000     0.0376214  
H501     H      0.499390000000     0.963940000000     0.637790000000     0.0389734  
H502     H      0.567460000000     0.041560000000     0.584850000000     0.0441479  
H503     H      0.500010000000     0.008220000000     0.750240000000     0.0478887  
H504     H      0.526280000000     0.969990000000     0.873060000000     0.0446639  
H505     H      0.560180000000     0.988180000000     0.694740000000     0.0468998  
H506     H      0.546480000000     0.982760000000     0.817290000000     0.0400013  
H507     H      0.498360000000     0.972700000000     0.572560000000     0.0487518  
H508     H      0.528560000000     0.036730000000     0.848980000000     0.0300555  
H509     H      0.539560000000     0.033500000000     0.635490000000     0.0432342  
H510     H      0.499850000000     0.993090000000     0.628710000000     0.0454717  
H511     H      0.558820000000     0.990950000000     0.759540000000     0.0435298  
H512     H      0.565580000000     0.026920000000     0.808150000000     0.0625154  
H513     H      0.568670000000     0.013410000000     0.593910000000     0.0396801  
H514     H      0.494150000000     0.998130000000     0.208350000000     0.0444175  
H515     H      0.561500000000     0.069820000000     0.318030000000     0.0404116  
H516     H      0.483680000000     0.033290000000     0.304350000000     0.0541269  
H517     H      0.546870000000     0.013200000000     0.107100000000     0.0392944  
H518     H      0.559580000000     0.080850000000     0.375570000000     0.04394    
H519     H      0.514760000000     0.058830000000     0.145780000000     0.0368764  
H520     H      0.528500000000     0.998640000000     0.163820000000     0.0370534  
H521     H      0.507460000000     0.047290000000     0.080820000000     0.0428823  
H522     H      0.494910000000     0.006530000000     0.271820000000     0.0471527  
H523     H      0.538420000000     0.091450000000     0.364950000000     0.0432664  
H524     H      0.553600000000     0.074010000000     0.191390000000     0.0463957  
H525     H      0.548040000000     0.089300000000     0.308310000000     0.0350407  
H526     H      0.517670000000     0.985830000000     0.098500000000     0.0470009  
H527     H      0.488460000000     0.019700000000     0.360650000000     0.0337249  
H528     H      0.491170000000     0.026720000000     0.137860000000     0.0428548  
H529     H      0.498590000000     0.992700000000     0.148890000000     0.0411794  
H530     H      0.553070000000     0.083340000000     0.253560000000     0.0422409  
H531     H      0.500730000000     0.066180000000     0.315040000000     0.0628682  
H532     H      0.538780000000     0.060050000000     0.095410000000     0.0418283  
H533     H      0.645140000000     0.063060000000     0.094260000000     0.0426592  
H534     H      0.735400000000     0.074620000000     0.114500000000     0.0363499  
H535     H      0.727000000000     0.138760000000     0.124550000000     0.0603868  
H536     H      0.621340000000     0.030600000000     0.969150000000     0.042593   
H537     H      0.754610000000     0.096500000000     0.169950000000     0.0382122  
H538     H      0.648360000000     0.100600000000     0.019740000000     0.0389759  
H539     H      0.640500000000     0.027770000000     0.023960000000     0.0366931  
H540     H      0.606110000000     0.082850000000     0.994030000000     0.0477881  
H541     H      0.680280000000     0.079820000000     0.135550000000     0.0471431  
H542     H      0.777510000000     0.097730000000     0.140090000000     0.0432853  
H543     H      0.695460000000     0.089800000000     0.005300000000     0.047648   
H544     H      0.755500000000     0.102170000000     0.088580000000     0.0402274  
H545     H      0.597800000000     0.008870000000     0.998790000000     0.0442305  
H546     H      0.749490000000     0.135930000000     0.176020000000     0.0281252  
H547     H      0.624830000000     0.077180000000     0.048180000000     0.0406394  
H548     H      0.620120000000     0.033960000000     0.050680000000     0.0392021  
H549     H      0.730590000000     0.107340000000     0.046610000000     0.04283    
H550     H      0.750300000000     0.140500000000     0.094400000000     0.0605049  
H551     H      0.626770000000     0.078020000000     0.966210000000     0.0469888  
H552     H      0.246990000000     0.918100000000     0.608420000000     0.0429159  
H553     H      0.237990000000     0.880670000000     0.486330000000     0.0376741  
H554     H      0.198900000000     0.920670000000     0.491140000000     0.0607492  
H555     H      0.186420000000     0.844510000000     0.691750000000     0.0415116  
H556     H      0.249720000000     0.909090000000     0.435230000000     0.0412027  
H557     H      0.202450000000     0.917210000000     0.648740000000     0.0374683  
H558     H      0.212770000000     0.854170000000     0.641160000000     0.0365     
H559     H      0.207720000000     0.917090000000     0.715980000000     0.0418751  
H560     H      0.252670000000     0.925850000000     0.544040000000     0.048133   
H561     H      0.233070000000     0.876840000000     0.420730000000     0.0436605  
H562     H      0.172360000000     0.858240000000     0.590240000000     0.0472737  
H563     H      0.205900000000     0.864560000000     0.473210000000     0.0414521  
H564     H      0.216700000000     0.854180000000     0.708500000000     0.040981   
H565     H      0.225760000000     0.933650000000     0.439010000000     0.0281917  
H566     H      0.230740000000     0.919200000000     0.663990000000     0.0377945  
H567     H      0.236520000000     0.883380000000     0.659770000000     0.0388311  
H568     H      0.178510000000     0.864990000000     0.525820000000     0.044536   
H569     H      0.182560000000     0.888510000000     0.475530000000     0.0610529  
H570     H      0.179400000000     0.892370000000     0.698170000000     0.0404507  
H571     H      0.195650000000     0.874030000000     0.042020000000     0.0426554  
H572     H      0.132880000000     0.853300000000     0.154700000000     0.0383537  
H573     H      0.178800000000     0.821050000000     0.148480000000     0.0548028  
H574     H      0.138020000000     0.856010000000     0.940060000000     0.0393398  
H575     H      0.147860000000     0.865330000000     0.211130000000     0.0422243  
H576     H      0.166330000000     0.814140000000     0.993470000000     0.0376545  
H577     H      0.153740000000     0.875980000000     0.996870000000     0.0369248  
H578     H      0.177850000000     0.822650000000     0.928970000000     0.0421671  
H579     H      0.195380000000     0.873120000000     0.107260000000     0.047802   
H580     H      0.124080000000     0.834260000000     0.221430000000     0.0440431  
H581     H      0.121640000000     0.810390000000     0.040520000000     0.0477723  
H582     H      0.121030000000     0.820440000000     0.163390000000     0.0397551  
H583     H      0.165820000000     0.885320000000     0.932530000000     0.042695   
H584     H      0.192410000000     0.839760000000     0.203300000000     0.0324781  
H585     H      0.191590000000     0.845500000000     0.985280000000     0.040065   
H586     H      0.184310000000     0.881470000000     0.987050000000     0.0385876  
H587     H      0.122020000000     0.808410000000     0.105700000000     0.0448202  
H588     H      0.146920000000     0.802800000000     0.161100000000     0.0630603  
H589     H      0.146160000000     0.813270000000     0.938020000000     0.0407385  
H590     H      0.347060000000     0.936790000000     0.844650000000     0.0425855  
H591     H      0.410890000000     0.000210000000     0.932720000000     0.0367988  
H592     H      0.400560000000     0.927120000000     0.945840000000     0.0548451  
H593     H      0.264870000000     0.927940000000     0.889850000000     0.040651   
H594     H      0.451600000000     0.008360000000     0.925720000000     0.0421205  
H595     H      0.303180000000     0.885010000000     0.879950000000     0.0375531  
H596     H      0.307920000000     0.956330000000     0.881170000000     0.0358511  
H597     H      0.264060000000     0.867930000000     0.842900000000     0.0423897  
H598     H      0.389780000000     0.954510000000     0.865950000000     0.0473815  
H599     H      0.450170000000     0.017050000000     0.970600000000     0.0427057  
H600     H      0.321980000000     0.931040000000     0.952960000000     0.0471947  
H601     H      0.407360000000     0.986630000000     0.976320000000     0.0413165  
H602     H      0.268440000000     0.938220000000     0.844510000000     0.0406159  
H603     H      0.443260000000     0.947650000000     0.944610000000     0.0297871  
H604     H      0.306050000000     0.901530000000     0.838940000000     0.0381438  
H605     H      0.308780000000     0.942080000000     0.839670000000     0.0380511  
H606     H      0.364650000000     0.949490000000     0.974180000000     0.0443894  
H607     H      0.399030000000     0.944560000000     0.983060000000     0.0622693  
H608     H      0.261340000000     0.874470000000     0.888570000000     0.0407655  
H609     H      0.862290000000     0.718330000000     0.900320000000     0.0460191  
H610     H      0.846810000000     0.649060000000     0.786600000000     0.0383964  
H611     H      0.814540000000     0.695020000000     0.799490000000     0.0563905  
H612     H      0.882360000000     0.681570000000     0.997690000000     0.0402985  
H613     H      0.854600000000     0.661900000000     0.729090000000     0.0443507  
H614     H      0.809080000000     0.657030000000     0.955270000000     0.0370025  
H615     H      0.886590000000     0.703900000000     0.943430000000     0.0385714  
H616     H      0.813210000000     0.664290000000     0.021130000000     0.0429903  
H617     H      0.857200000000     0.716220000000     0.835890000000     0.0533089  
H618     H      0.822910000000     0.639440000000     0.722370000000     0.043029   
H619     H      0.823700000000     0.637150000000     0.905460000000     0.0459273  
H620     H      0.814070000000     0.636540000000     0.781930000000     0.0379954  
H621     H      0.890280000000     0.712980000000     0.009540000000     0.0483628  
H622     H      0.831990000000     0.709880000000     0.744260000000     0.0408609  
H623     H      0.823890000000     0.689860000000     0.966940000000     0.0444352  
H624     H      0.868000000000     0.716740000000     0.959930000000     0.0436577  
H625     H      0.816400000000     0.635020000000     0.841630000000     0.0430979  
H626     H      0.796690000000     0.662720000000     0.786170000000     0.0632593  
H627     H      0.827340000000     0.646970000000     0.004720000000     0.0410569  
H628     H      0.890060000000     0.750440000000     0.336130000000     0.0432606  
H629     H      0.862490000000     0.744460000000     0.455950000000     0.0364325  
H630     H      0.914610000000     0.719230000000     0.462070000000     0.0615983  
H631     H      0.846690000000     0.663240000000     0.263710000000     0.0431384  
H632     H      0.891990000000     0.767350000000     0.503640000000     0.0416533  
H633     H      0.913240000000     0.727500000000     0.297920000000     0.0405472  
H634     H      0.835740000000     0.682090000000     0.311850000000     0.036175   
H635     H      0.907800000000     0.723800000000     0.231530000000     0.0516657  
H636     H      0.897010000000     0.762310000000     0.398900000000     0.0470596  
H637     H      0.861760000000     0.747170000000     0.522250000000     0.0419246  
H638     H      0.863160000000     0.672890000000     0.365000000000     0.0480396  
H639     H      0.853090000000     0.714500000000     0.476860000000     0.0418729  
H640     H      0.829950000000     0.677510000000     0.245570000000     0.0415215  
H641     H      0.923760000000     0.752150000000     0.505920000000     0.0289776  
H642     H      0.892940000000     0.738070000000     0.280590000000     0.0401942  
H643     H      0.848190000000     0.711880000000     0.289110000000     0.0402173  
H644     H      0.867780000000     0.684420000000     0.427930000000     0.0454202  
H645     H      0.884420000000     0.699670000000     0.481710000000     0.0622225  
H646     H      0.899810000000     0.694820000000     0.253620000000     0.0497743  
H647     H      0.706180000000     0.617120000000     0.576410000000     0.0454155  
H648     H      0.647600000000     0.627630000000     0.486600000000     0.0376774  
H649     H      0.650750000000     0.560820000000     0.474040000000     0.0548171  
H650     H      0.787710000000     0.694710000000     0.544260000000     0.0396971  
H651     H      0.605510000000     0.599230000000     0.490700000000     0.0413385  
H652     H      0.753020000000     0.614040000000     0.533830000000     0.0379788  
H653     H      0.744030000000     0.677230000000     0.551580000000     0.0388379  
H654     H      0.790840000000     0.633410000000     0.573480000000     0.0447315  
H655     H      0.663630000000     0.595100000000     0.553590000000     0.0485495  
H656     H      0.609070000000     0.607320000000     0.444660000000     0.0422467  
H657     H      0.733370000000     0.643130000000     0.470360000000     0.0468616  
H658     H      0.650670000000     0.617030000000     0.443290000000     0.0399979  
H659     H      0.781820000000     0.696500000000     0.590560000000     0.0496829  
H660     H      0.608220000000     0.541730000000     0.477330000000     0.0308367  
H661     H      0.747690000000     0.621380000000     0.578260000000     0.0420437  
H662     H      0.742710000000     0.657770000000     0.588490000000     0.0445607  
H663     H      0.690920000000     0.620930000000     0.447470000000     0.043835   
H664     H      0.653610000000     0.580360000000     0.436690000000     0.0619905  
H665     H      0.794290000000     0.649240000000     0.531920000000     0.0404385  
H666     H      0.059740000000     0.815820000000     0.703090000000     0.0434251  
H667     H      0.976300000000     0.736180000000     0.688730000000     0.0394175  
H668     H      0.967470000000     0.798370000000     0.714220000000     0.0574876  
H669     H      0.094010000000     0.796020000000     0.815260000000     0.0402107  
H670     H      0.950290000000     0.736690000000     0.642510000000     0.0514988  
H671     H      0.069390000000     0.846150000000     0.780220000000     0.037743   
H672     H      0.068860000000     0.777560000000     0.763010000000     0.0370692  
H673     H      0.114410000000     0.867450000000     0.796040000000     0.0427906  
H674     H      0.020090000000     0.798430000000     0.671500000000     0.0499828  
H675     H      0.931660000000     0.711240000000     0.671970000000     0.0482951  
H676     H      0.021090000000     0.782050000000     0.800760000000     0.0476605  
H677     H      0.955270000000     0.733670000000     0.723430000000     0.0415892  
H678     H      0.113810000000     0.798380000000     0.779060000000     0.0424972  
H679     H      0.939910000000     0.781870000000     0.665730000000     0.0326361  
H680     H      0.088620000000     0.844400000000     0.745820000000     0.0392272  
H681     H      0.088290000000     0.804610000000     0.735850000000     0.0395044  
H682     H      0.981570000000     0.764160000000     0.769180000000     0.0446676  
H683     H      0.951950000000     0.769830000000     0.739740000000     0.0622599  
H684     H      0.094520000000     0.843640000000     0.827000000000     0.0398243  
N1       N      0.799390000000     0.108000000000     0.650830000000    -0.172387   
N2       N      0.775390000000     0.058460000000     0.675810000000    -0.108244   
N3       N      0.726680000000     0.953610000000     0.708950000000    -0.112677   
N4       N      0.702460000000     0.905210000000     0.739780000000    -0.164588   
N5       N      0.969880000000     0.451050000000     0.512320000000    -0.173619   
N6       N      0.943830000000     0.399800000000     0.534750000000    -0.10958    
N7       N      0.893380000000     0.310330000000     0.618310000000    -0.113159   
N8       N      0.868380000000     0.259710000000     0.641070000000    -0.166892   
N9       N      0.036710000000     0.599070000000     0.463170000000    -0.172591   
N10      N      0.060240000000     0.647800000000     0.433250000000    -0.108474   
N11      N      0.118290000000     0.752180000000     0.399330000000    -0.112587   
N12      N      0.146200000000     0.799780000000     0.366860000000    -0.164638   
N13      N      0.528040000000     0.565010000000     0.925390000000    -0.170396   
N14      N      0.552580000000     0.612940000000     0.893800000000    -0.108095   
N15      N      0.606690000000     0.716110000000     0.851150000000    -0.11241    
N16      N      0.630980000000     0.763370000000     0.816990000000    -0.16436    
N17      N      0.337540000000     0.145550000000     0.242570000000    -0.174692   
N18      N      0.316690000000     0.093370000000     0.253580000000    -0.109669   
N19      N      0.255820000000     0.986550000000     0.251760000000    -0.112737   
N20      N      0.225900000000     0.936100000000     0.274290000000    -0.165698   
N21      N      0.452130000000     0.415120000000     0.962280000000    -0.17426    
N22      N      0.431200000000     0.377250000000     0.015040000000    -0.110082   
N23      N      0.407150000000     0.331290000000     0.152430000000    -0.113467   
N24      N      0.391350000000     0.293220000000     0.204500000000    -0.16694    
N25      N      0.658590000000     0.811560000000     0.675800000000    -0.172159   
N26      N      0.667370000000     0.818020000000     0.603450000000    -0.10711    
N27      N      0.687200000000     0.835160000000     0.453850000000    -0.110126   
N28      N      0.696520000000     0.843250000000     0.380930000000    -0.164213   
N29      N      0.676010000000     0.859390000000     0.879510000000    -0.172726   
N30      N      0.677410000000     0.863040000000     0.953870000000    -0.108501   
N31      N      0.678790000000     0.879780000000     0.103610000000    -0.113202   
N32      N      0.681390000000     0.876900000000     0.178310000000    -0.167005   
N33      N      0.830730000000     0.736360000000     0.129560000000    -0.172345   
N34      N      0.811290000000     0.764510000000     0.156970000000    -0.107871   
N35      N      0.759300000000     0.813710000000     0.202880000000    -0.112892   
N36      N      0.731410000000     0.831450000000     0.238610000000    -0.166834   
N37      N      0.649610000000     0.888390000000     0.318240000000    -0.173701   
N38      N      0.621890000000     0.911470000000     0.338280000000    -0.109168   
N39      N      0.577510000000     0.960630000000     0.410580000000    -0.112799   
N40      N      0.556540000000     0.989430000000     0.433600000000    -0.166464   
N41      N      0.996100000000     0.505730000000     0.885480000000    -0.171669   
N42      N      0.994560000000     0.521640000000     0.815090000000    -0.108849   
N43      N      0.003060000000     0.541990000000     0.665640000000    -0.112361   
N44      N      0.004800000000     0.540020000000     0.590490000000    -0.163403   
N45      N      0.999680000000     0.464900000000     0.089160000000    -0.174666   
N46      N      0.998980000000     0.467540000000     0.164490000000    -0.109231   
N47      N      0.002090000000     0.503280000000     0.305930000000    -0.112384   
N48      N      0.001930000000     0.510790000000     0.380180000000    -0.165424   
N49      N      0.889710000000     0.645510000000     0.126070000000    -0.172709   
N50      N      0.908430000000     0.616030000000     0.100590000000    -0.107952   
N51      N      0.949410000000     0.554720000000     0.060970000000    -0.112849   
N52      N      0.969070000000     0.527630000000     0.027110000000    -0.166343   
N53      N      0.371870000000     0.216610000000     0.117860000000    -0.179112   
N54      N      0.382440000000     0.211360000000     0.047490000000    -0.108485   
N55      N      0.402240000000     0.193350000000     0.904560000000    -0.112071   
N56      N      0.403300000000     0.193980000000     0.829170000000    -0.167863   
N57      N      0.358770000000     0.226320000000     0.328610000000    -0.173685   
N58      N      0.357700000000     0.227160000000     0.404030000000    -0.109902   
N59      N      0.368850000000     0.208390000000     0.549460000000    -0.112781   
N60      N      0.375140000000     0.207070000000     0.623260000000    -0.166902   
N61      N      0.498120000000     0.067730000000     0.522540000000    -0.17255    
N62      N      0.480030000000     0.096660000000     0.556760000000    -0.108828   
N63      N      0.449180000000     0.142960000000     0.660670000000    -0.113299   
N64      N      0.425980000000     0.166180000000     0.695870000000    -0.167301   
N65      N      0.025510000000     0.444440000000     0.948290000000    -0.169947   
N66      N      0.048380000000     0.418220000000     0.919370000000    -0.108533   
N67      N      0.098760000000     0.384260000000     0.828110000000    -0.112937   
N68      N      0.131280000000     0.368350000000     0.803100000000    -0.166636   
N69      N      0.231080000000     0.321290000000     0.803800000000    -0.169652   
N70      N      0.263460000000     0.303330000000     0.788150000000    -0.10788    
N71      N      0.324820000000     0.259080000000     0.780500000000    -0.113011   
N72      N      0.351250000000     0.235040000000     0.759520000000    -0.167105   
N73      N      0.482270000000     0.474760000000     0.839160000000    -0.177394   
N74      N      0.484370000000     0.484800000000     0.766860000000    -0.109259   
N75      N      0.516920000000     0.526550000000     0.629660000000    -0.112956   
N76      N      0.525300000000     0.532510000000     0.555820000000    -0.167538   
N77      N      0.493680000000     0.496130000000     0.048970000000    -0.177818   
N78      N      0.505020000000     0.504630000000     0.120920000000    -0.108327   
N79      N      0.533280000000     0.528580000000     0.267020000000    -0.111432   
N80      N      0.532880000000     0.530610000000     0.342090000000    -0.165585   
N81      N      0.844820000000     0.185760000000     0.042180000000    -0.175527   
N82      N      0.820710000000     0.188240000000     0.977740000000    -0.108667   
N83      N      0.820010000000     0.180380000000     0.826350000000    -0.112133   
N84      N      0.825940000000     0.185190000000     0.752420000000    -0.167048   
N85      N      0.866650000000     0.167570000000     0.246710000000    -0.180432   
N86      N      0.866620000000     0.171100000000     0.320710000000    -0.108716   
N87      N      0.851640000000     0.185330000000     0.466930000000    -0.112138   
N88      N      0.842480000000     0.182760000000     0.540350000000    -0.166226   
N89      N      0.179350000000     0.341170000000     0.694770000000    -0.172296   
N90      N      0.168560000000     0.340680000000     0.622120000000    -0.108044   
N91      N      0.159950000000     0.339260000000     0.470690000000    -0.10979    
N92      N      0.158460000000     0.339980000000     0.397950000000    -0.163286   
N93      N      0.185350000000     0.348610000000     0.909410000000    -0.17294    
N94      N      0.189410000000     0.353650000000     0.984490000000    -0.109006   
N95      N      0.221940000000     0.366980000000     0.128990000000    -0.112755   
N96      N      0.221680000000     0.366720000000     0.203940000000    -0.166431   
N97      N      0.123600000000     0.320150000000     0.248060000000    -0.172134   
N98      N      0.074000000000     0.293370000000     0.227580000000    -0.107867   
N99      N      0.975430000000     0.241890000000     0.172860000000    -0.111539   
N100     N      0.925020000000     0.214140000000     0.156180000000    -0.156495   
N101     N      0.254870000000     0.386270000000     0.350840000000    -0.172352   
N102     N      0.305030000000     0.411630000000     0.369970000000    -0.108319   
N103     N      0.401700000000     0.463270000000     0.430930000000    -0.112951   
N104     N      0.453200000000     0.491270000000     0.443030000000    -0.166611   
N105     N      0.533600000000     0.008090000000     0.872230000000    -0.173095   
N106     N      0.527510000000     0.001510000000     0.798120000000    -0.10866    
N107     N      0.534130000000     0.996920000000     0.646890000000    -0.112846   
N108     N      0.534260000000     0.006360000000     0.573300000000    -0.165756   
N109     N      0.520710000000     0.052930000000     0.377830000000    -0.171966   
N110     N      0.523120000000     0.049460000000     0.306720000000    -0.105931   
N111     N      0.525450000000     0.031470000000     0.157090000000    -0.112236   
N112     N      0.520660000000     0.021100000000     0.083800000000    -0.164973   
N113     N      0.776940000000     0.132650000000     0.147400000000    -0.174922   
N114     N      0.728130000000     0.104880000000     0.119640000000    -0.110294   
N115     N      0.647610000000     0.065500000000     0.021260000000    -0.112903   
N116     N      0.599760000000     0.044830000000     0.991620000000    -0.164672   
N117     N      0.213330000000     0.897500000000     0.417570000000    -0.175199   
N118     N      0.219900000000     0.902060000000     0.492520000000    -0.109606   
N119     N      0.204140000000     0.883630000000     0.641930000000    -0.112405   
N120     N      0.203720000000     0.880220000000     0.716660000000    -0.166114   
N121     N      0.160480000000     0.839700000000     0.222800000000    -0.171737   
N122     N      0.159430000000     0.841380000000     0.149970000000    -0.107394   
N123     N      0.157130000000     0.843110000000     0.997930000000    -0.112807   
N124     N      0.168240000000     0.851740000000     0.924600000000    -0.166724   
N125     N      0.452490000000     0.983650000000     0.964390000000    -0.171967   
N126     N      0.405790000000     0.963190000000     0.933000000000    -0.108227   
N127     N      0.305790000000     0.920750000000     0.886360000000    -0.112631   
N128     N      0.259570000000     0.899960000000     0.852340000000    -0.166211   
N129     N      0.831060000000     0.677480000000     0.722430000000    -0.170163   
N130     N      0.834910000000     0.675710000000     0.794720000000    -0.105303   
N131     N      0.848000000000     0.677650000000     0.946160000000    -0.11188    
N132     N      0.852870000000     0.684160000000     0.020720000000    -0.164804   
N133     N      0.888600000000     0.735140000000     0.529840000000    -0.176265   
N134     N      0.889480000000     0.732860000000     0.454930000000    -0.109075   
N135     N      0.875010000000     0.702960000000     0.308700000000    -0.112002   
N136     N      0.868870000000     0.696460000000     0.234280000000    -0.164858   
N137     N      0.602040000000     0.570250000000     0.456330000000    -0.172418   
N138     N      0.648730000000     0.593490000000     0.486810000000    -0.107923   
N139     N      0.748140000000     0.645930000000     0.537350000000    -0.112759   
N140     N      0.792530000000     0.669230000000     0.576620000000    -0.164892   
N141     N      0.925530000000     0.742780000000     0.673650000000    -0.171078   
N142     N      0.974970000000     0.769700000000     0.698070000000    -0.108171   
N143     N      0.066070000000     0.810070000000     0.774140000000    -0.112904   
N144     N      0.115940000000     0.833060000000     0.795640000000    -0.16683    
O1       O      0.889820000000     0.741030000000     0.653360000000    -0.374352   
O2       O      0.822130000000     0.703110000000     0.607570000000    -0.393761   
O3       O      0.840850000000     0.707270000000     0.678680000000    -0.377253   
O4       O      0.870490000000     0.736480000000     0.582080000000    -0.396581   
O5       O      0.877630000000     0.704780000000     0.572830000000    -0.377607   
O6       O      0.846760000000     0.674850000000     0.668380000000    -0.396651   
O7       O      0.828080000000     0.670790000000     0.596720000000    -0.39446    
O8       O      0.895380000000     0.708360000000     0.643990000000    -0.391594   
O9       O      0.152390000000     0.868290000000     0.810790000000    -0.397755   
O10      O      0.225010000000     0.902270000000     0.837500000000    -0.396097   
O11      O      0.197570000000     0.892440000000     0.771690000000    -0.397382   
O12      O      0.179050000000     0.877820000000     0.875950000000    -0.397543   
O13      O      0.178360000000     0.841250000000     0.871000000000    -0.396261   
O14      O      0.197360000000     0.856100000000     0.766690000000    -0.395779   
O15      O      0.223920000000     0.865480000000     0.832930000000    -0.397691   
O16      O      0.151620000000     0.831730000000     0.805120000000    -0.397118   
O17      O      0.491700000000     0.017930000000     0.966490000000    -0.397323   
O18      O      0.565520000000     0.048680000000     0.981530000000    -0.390628   
O19      O      0.533320000000     0.030640000000     0.920950000000    -0.379766   
O20      O      0.523950000000     0.035910000000     0.026800000000    -0.396752   
O21      O      0.521010000000     0.998510000000     0.035280000000    -0.391539   
O22      O      0.526550000000     0.991670000000     0.928760000000    -0.396858   
O23      O      0.560810000000     0.010360000000     0.987320000000    -0.395631   
O24      O      0.486620000000     0.979800000000     0.976380000000    -0.378428   
O25      O      0.222890000000     0.388060000000     0.323390000000    -0.380485   
O26      O      0.155960000000     0.354430000000     0.275140000000    -0.378758   
O27      O      0.173240000000     0.364330000000     0.347730000000    -0.390679   
O28      O      0.206180000000     0.378400000000     0.250980000000    -0.391651   
O29      O      0.205510000000     0.341750000000     0.253280000000    -0.397971   
O30      O      0.171150000000     0.326950000000     0.349050000000    -0.395776   
O31      O      0.155340000000     0.317790000000     0.275570000000    -0.396237   
O32      O      0.221730000000     0.351200000000     0.326370000000    -0.394847   
O33      O      0.813320000000     0.170280000000     0.154480000000    -0.37653    
O34      O      0.887640000000     0.212070000000     0.151910000000    -0.384226   
O35      O      0.848760000000     0.198060000000     0.100390000000    -0.383156   
O36      O      0.853960000000     0.185390000000     0.204560000000    -0.383779   
O37      O      0.855450000000     0.150690000000     0.191270000000    -0.398515   
O38      O      0.849640000000     0.163100000000     0.086770000000    -0.398426   
O39      O      0.890180000000     0.178170000000     0.137380000000    -0.389035   
O40      O      0.815130000000     0.135960000000     0.141470000000    -0.398285   
O41      O      0.564540000000     0.568690000000     0.452520000000    -0.395703   
O42      O      0.489790000000     0.528940000000     0.442980000000    -0.396015   
O43      O      0.523730000000     0.548490000000     0.501320000000    -0.397479   
O44      O      0.530850000000     0.549380000000     0.393860000000    -0.395683   
O45      O      0.529000000000     0.512140000000     0.396450000000    -0.39505    
O46      O      0.527580000000     0.514270000000     0.503890000000    -0.400404   
O47      O      0.490730000000     0.493240000000     0.448540000000    -0.398896   
O48      O      0.565510000000     0.532840000000     0.451640000000    -0.382473   
O49      O      0.140850000000     0.336710000000     0.803600000000    -0.397654   
O50      O      0.191050000000     0.313240000000     0.804020000000    -0.391001   
O51      O      0.167710000000     0.326860000000     0.857700000000    -0.376724   
O52      O      0.164820000000     0.323040000000     0.749670000000    -0.397194   
O53      O      0.194860000000     0.363060000000     0.746940000000    -0.379292   
O54      O      0.197910000000     0.366780000000     0.854430000000    -0.393868   
O55      O      0.221550000000     0.353030000000     0.800690000000    -0.371094   
O56      O      0.171320000000     0.376560000000     0.800930000000    -0.398621   
O57      O      0.352500000000     0.199360000000     0.744740000000    -0.398378   
O58      O      0.389910000000     0.164870000000     0.711730000000    -0.399078   
O59      O      0.379040000000     0.178100000000     0.779370000000    -0.397527   
O60      O      0.363560000000     0.186000000000     0.676670000000    -0.396896   
O61      O      0.398960000000     0.222470000000     0.673410000000    -0.400349   
O62      O      0.412640000000     0.216150000000     0.776980000000    -0.400141   
O63      O      0.424750000000     0.201920000000     0.710340000000    -0.398534   
O64      O      0.386830000000     0.236650000000     0.740050000000    -0.398716   
O65      O      0.992450000000     0.448460000000     0.967080000000    -0.371518   
O66      O      0.964060000000     0.491050000000     0.002920000000    -0.399496   
O67      O      0.977010000000     0.480450000000     0.934010000000    -0.389141   
O68      O      0.979480000000     0.459340000000     0.035930000000    -0.394405   
O69      O      0.017830000000     0.491350000000     0.041330000000    -0.374359   
O70      O      0.015060000000     0.513050000000     0.940170000000    -0.378027   
O71      O      0.002150000000     0.523610000000     0.009440000000    -0.395603   
O72      O      0.030380000000     0.481180000000     0.972100000000    -0.384828   
O73      O      0.652830000000     0.855170000000     0.295820000000    -0.376684   
O74      O      0.694020000000     0.826560000000     0.255990000000    -0.398294   
O75      O      0.678250000000     0.831490000000     0.325950000000    -0.391035   
O76      O      0.668260000000     0.850070000000     0.226140000000    -0.397468   
O77      O      0.703470000000     0.886620000000     0.230470000000    -0.397193   
O78      O      0.710820000000     0.869910000000     0.332830000000    -0.395793   
O79      O      0.728130000000     0.863630000000     0.264160000000    -0.39908    
O80      O      0.686530000000     0.892960000000     0.299050000000    -0.399896   
O81      O      0.856240000000     0.651470000000     0.130000000000    -0.397371   
O82      O      0.826760000000     0.697160000000     0.131290000000    -0.400404   
O83      O      0.837400000000     0.671470000000     0.077060000000    -0.395834   
O84      O      0.845400000000     0.677660000000     0.184570000000    -0.394938   
O85      O      0.883380000000     0.710420000000     0.177920000000    -0.390836   
O86      O      0.875290000000     0.704430000000     0.070590000000    -0.390816   
O87      O      0.864370000000     0.730610000000     0.125340000000    -0.380488   
O88      O      0.893870000000     0.684840000000     0.123650000000    -0.383478   
O89      O      0.523010000000     0.992740000000     0.450660000000    -0.398227   
O90      O      0.493730000000     0.032050000000     0.495440000000    -0.371607   
O91      O      0.504800000000     0.024460000000     0.423850000000    -0.383611   
O92      O      0.511980000000     0.000550000000     0.521900000000    -0.389517   
O93      O      0.549350000000     0.034440000000     0.527030000000    -0.399063   
O94      O      0.542730000000     0.057540000000     0.428870000000    -0.400066   
O95      O      0.531230000000     0.065620000000     0.499970000000    -0.398016   
O96      O      0.560710000000     0.026130000000     0.456170000000    -0.398738   
O97      O      0.369980000000     0.185300000000     0.234240000000    -0.391411   
O98      O      0.396860000000     0.259850000000     0.217900000000    -0.396283   
O99      O      0.381110000000     0.227620000000     0.279370000000    -0.396705   
O100     O      0.385320000000     0.217610000000     0.173560000000    -0.348289   
O101     O      0.347500000000     0.212480000000     0.166010000000    -0.396954   
O102     O      0.342440000000     0.219680000000     0.272360000000    -0.375819   
O103     O      0.358560000000     0.253270000000     0.212240000000    -0.3971     
O104     O      0.331600000000     0.178430000000     0.227410000000    -0.371267   
O105     O      0.488730000000     0.452320000000     0.954450000000    -0.372237   
O106     O      0.526610000000     0.527060000000     0.932890000000    -0.391976   
O107     O      0.510980000000     0.497210000000     0.996220000000    -0.347632   
O108     O      0.504180000000     0.481470000000     0.890950000000    -0.394127   
O109     O      0.470560000000     0.485630000000     0.889550000000    -0.347396   
O110     O      0.473890000000     0.494540000000     0.996680000000    -0.390619   
O111     O      0.491550000000     0.528210000000     0.935850000000    -0.371141   
O112     O      0.453350000000     0.452480000000     0.950090000000    -0.39462    
O113     O      0.222040000000     0.898680000000     0.293710000000    -0.39436    
O114     O      0.181670000000     0.829890000000     0.339730000000    -0.391386   
O115     O      0.188280000000     0.848970000000     0.268370000000    -0.38361    
O116     O      0.215350000000     0.879200000000     0.365370000000    -0.398215   
O117     O      0.184240000000     0.886540000000     0.373080000000    -0.373224   
O118     O      0.157510000000     0.857120000000     0.275410000000    -0.396214   
O119     O      0.150270000000     0.837030000000     0.346610000000    -0.394025   
O120     O      0.190920000000     0.906050000000     0.302180000000    -0.393574   
O121     O      0.038190000000     0.563280000000     0.476380000000    -0.398972   
O122     O      0.004770000000     0.488910000000     0.499490000000    -0.375075   
O123     O      0.020640000000     0.518510000000     0.435060000000    -0.395075   
O124     O      0.022510000000     0.534100000000     0.540490000000    -0.388286   
O125     O      0.985520000000     0.530990000000     0.535990000000    -0.388563   
O126     O      0.983620000000     0.515330000000     0.430550000000    -0.39471    
O127     O      0.968010000000     0.486100000000     0.495150000000    -0.397901   
O128     O      0.001450000000     0.560680000000     0.471830000000    -0.37585    
O129     O      0.869320000000     0.222930000000     0.647190000000    -0.398891   
O130     O      0.834580000000     0.146800000000     0.653530000000    -0.398492   
O131     O      0.855380000000     0.182670000000     0.597300000000    -0.400889   
O132     O      0.848550000000     0.187070000000     0.703470000000    -0.401586   
O133     O      0.811360000000     0.183090000000     0.695670000000    -0.397274   
O134     O      0.820150000000     0.182870000000     0.588750000000    -0.392777   
O135     O      0.798500000000     0.144820000000     0.643340000000    -0.378692   
O136     O      0.832970000000     0.221080000000     0.640960000000    -0.397606   
O137     O      0.666640000000     0.798440000000     0.798520000000    -0.389595   
O138     O      0.702740000000     0.870120000000     0.760810000000    -0.389101   
O139     O      0.689790000000     0.847730000000     0.830210000000    -0.37902    
O140     O      0.679720000000     0.821020000000     0.728940000000    -0.381655   
O141     O      0.644740000000     0.822330000000     0.725620000000    -0.398566   
O142     O      0.653480000000     0.846350000000     0.827790000000    -0.398558   
O143     O      0.667130000000     0.870240000000     0.759030000000    -0.397042   
O144     O      0.630920000000     0.798180000000     0.794490000000    -0.396505   


